geometry optimzed in LAMMPS
_audit_creation_date              2020-11-30 
_audit_creation_method            'lammps2cif' 
_symmetry_space_group_name_H-M    'P1' 
_symmetry_Int_Tables_number       1 
_symmetry_cell_setting            triclinic 
loop_ 
_symmetry_equiv_pos_as_xyz 
  x,y,z 
_cell_length_a                    30.28994702 
_cell_length_b                    30.277813345262 
_cell_length_c                    45.457244214132324 
_cell_angle_alpha                 90.03296850273776 
_cell_angle_beta                  89.71599703061959 
_cell_angle_gamma                 120.02709255479844 
loop_ 
_atom_site_label 
_atom_site_type_symbol 
_atom_site_fract_x 
_atom_site_fract_y 
_atom_site_fract_z 
_atom_site_charge 
O1          O  0.91121397  0.96218439  0.33727305    -0.71500
O2          O  0.03854313  0.08508802  0.33591629    -0.71700
O3          O  0.97223999  0.02579422  0.29502790    -0.71600
O4          O  0.97772796  0.02153849  0.37846948    -0.71600
O5          O  0.01377867  0.97541393  0.37508486    -0.71600
O6          O  0.01474572  0.98563020  0.29197580    -0.71600
O7          O  0.07781637  0.04163487  0.33477767    -0.71500
O8          O  0.95014053  0.91894477  0.33202559    -0.71700
V9          V  0.97565597  0.02281437  0.33667511     1.35200
V10         V  0.01327008  0.98113861  0.33356657     1.35200
C11         C  0.90881936  0.91953095  0.33456947     0.77700
C12         C  0.07983355  0.08433958  0.33463818     0.77800
C13         C  0.99421664  0.00793046  0.27936081     0.77600
C14         C  0.99601076  0.99700009  0.39109845     0.77600
O15         O  0.09466675  0.55098909  0.32803789    -0.71500
O16         O  0.96804744  0.42639487  0.32762436    -0.71700
O17         O  0.03086843  0.48951833  0.28609296    -0.71600
O18         O  0.03131637  0.48710915  0.36955018    -0.71600
O19         O  0.99323373  0.53156660  0.37064715    -0.71600
O20         O  0.98806630  0.52938523  0.28719727    -0.71600
O21         O  0.92788168  0.46885974  0.33038338    -0.71500
O22         O  0.05390342  0.59293365  0.32753630    -0.71700
V23         V  0.03056300  0.48939410  0.32784724     1.35200
V24         V  0.99169652  0.52999554  0.32891172     1.35200
C25         C  0.09580104  0.59333331  0.32745903     0.77700
C26         C  0.92638476  0.42646755  0.32905626     0.77800
C27         C  0.00787803  0.50833536  0.27238972     0.77600
C28         C  0.01214313  0.50875407  0.38441288     0.77600
O29         O  0.54930056  0.09633115  0.33501451    -0.71500
O30         O  0.42424905  0.97031827  0.33696019    -0.71700
O31         O  0.48714312  0.03568837  0.37751951    -0.71600
O32         O  0.48658342  0.03139251  0.29425891    -0.71600
O33         O  0.53192570  0.99426464  0.29527089    -0.71600
O34         O  0.52537673  0.99133572  0.37871865    -0.71600
O35         O  0.46641879  0.92966332  0.33529627    -0.71500
O36         O  0.59079104  0.05535914  0.33846473    -0.71700
V37         V  0.48755317  0.03261260  0.33594732     1.35200
V38         V  0.52777428  0.99337473  0.33694344     1.35200
C39         C  0.59142765  0.09731199  0.33705042     0.77700
C40         C  0.42419758  0.92855791  0.33594669     0.77800
C41         C  0.50664294  0.01462935  0.39237393     0.77600
C42         C  0.50965694  0.01259914  0.28045802     0.77600
O43         O  0.45357689  0.41792489  0.33201374    -0.71500
O44         O  0.57746802  0.54474206  0.33342848    -0.71700
O45         O  0.51452759  0.47954767  0.37446266    -0.71600
O46         O  0.51627091  0.48280888  0.29109363    -0.71600
O47         O  0.47027931  0.51918857  0.29163909    -0.71600
O48         O  0.47542518  0.52318802  0.37503543    -0.71600
O49         O  0.53458956  0.58454367  0.33157803    -0.71500
O50         O  0.41105319  0.45798835  0.33492827    -0.71700
V51         V  0.51469690  0.48204625  0.33277396     1.35200
V52         V  0.47365632  0.52047018  0.33331308     1.35200
C53         C  0.41113927  0.41636803  0.33363173     0.77700
C54         C  0.57711151  0.58628230  0.33205830     0.77800
C55         C  0.49501568  0.50116118  0.38898052     0.77600
C56         C  0.49281522  0.50075907  0.27702971     0.77600
O57         O  0.95069761  0.04160031  0.00264510    -0.71500
O58         O  0.07359344  0.03757721  0.99984843    -0.71700
O59         O  0.00849601  0.03539452  0.95959175    -0.71600
O60         O  0.01565031  0.04353788  0.04293220    -0.71600
O61         O  0.97288967  0.96090053  0.04564868    -0.71600
O62         O  0.96507770  0.95293057  0.96231423    -0.71600
O63         O  0.03069538  0.95491929  0.00255370    -0.71500
O64         O  0.90726338  0.95909076  0.00562314    -0.71700
V65         V  0.01125250  0.03789242  0.00130159     1.35200
V66         V  0.96976675  0.95851244  0.00396547     1.35200
C67         C  0.90803091  0.00127654  0.00512700     0.77700
C68         C  0.07322558  0.99569654  0.00036601     0.77800
C69         C  0.98583233  0.99285528  0.94661838     0.77600
C70         C  0.99550614  0.00353413  0.05853126     0.77600
O71         O  0.03967056  0.44087061  0.99794434    -0.71500
O72         O  0.91639422  0.44460065  0.99368169    -0.71700
O73         O  0.98005345  0.44038107  0.95408248    -0.71600
O74         O  0.97581797  0.44561007  0.03765635    -0.71600
O75         O  0.02383240  0.52786150  0.03572157    -0.71600
O76         O  0.01847793  0.52289213  0.95261368    -0.71600
O77         O  0.95963555  0.52740887  0.99549475    -0.71500
O78         O  0.08279731  0.52324310  0.99266982    -0.71700
V79         V  0.97882827  0.44434859  0.99583573     1.35200
V80         V  0.02041834  0.52376754  0.99417151     1.35200
C81         C  0.08219343  0.48135431  0.99502688     0.77700
C82         C  0.91704727  0.48664235  0.99439783     0.77800
C83         C  0.99899057  0.48103261  0.93901078     0.77600
C84         C  0.99906198  0.48792604  0.05097299     0.77600
O85         O  0.53884229  0.96746447  0.00557221    -0.71500
O86         O  0.41173470  0.96332922  0.00165305    -0.71700
O87         O  0.47797668  0.96420570  0.96187214    -0.71600
O88         O  0.47318947  0.96661741  0.04516355    -0.71600
O89         O  0.51709065  0.04925915  0.04433584    -0.71600
O90         O  0.51250442  0.04665556  0.96085536    -0.71600
O91         O  0.45102795  0.04598618  0.00382579    -0.71500
O92         O  0.57838115  0.05002900  0.00133819    -0.71700
V93         V  0.47610893  0.96697512  0.00351730     1.35200
V94         V  0.51396520  0.04645937  0.00260054     1.35200
C95         C  0.58021619  0.00939406  0.00374554     0.77700
C96         C  0.40960939  0.00396345  0.00272995     0.77800
C97         C  0.49572268  0.00499461  0.94713374     0.77600
C98         C  0.49560017  0.00823763  0.05905059     0.77600
O99         O  0.46067652  0.53184216  0.00096595    -0.71500
O100        O  0.58654117  0.53213970  0.99982880    -0.71700
O101        O  0.52363169  0.53328099  0.95880399    -0.71600
O102        O  0.52391871  0.53156024  0.04193637    -0.71600
O103        O  0.47998956  0.44878006  0.04175730    -0.71600
O104        O  0.48478834  0.45075642  0.95800188    -0.71600
O105        O  0.54489781  0.44939304  0.00102299    -0.71500
O106        O  0.41985610  0.44922662  0.99888198    -0.71700
V107        V  0.52292291  0.53061079  0.00037079     1.35200
V108        V  0.48323059  0.45110727  0.99990938     1.35200
C109        C  0.41866875  0.49030976  0.00000385     0.77700
C110        C  0.58707430  0.49061353  0.00074741     0.77800
C111        C  0.50425876  0.49252557  0.94403016     0.77600
C112        C  0.50170967  0.49012207  0.05606631     0.77600
O113        O  0.04077481  0.94250914  0.66721844    -0.71500
O114        O  0.03434725  0.06439425  0.67200202    -0.71700
O115        O  0.03555673  0.99891726  0.71130069    -0.71600
O116        O  0.03935179  0.00804974  0.62793948    -0.71600
O117        O  0.95707707  0.95979202  0.62677712    -0.71600
O118        O  0.95295460  0.95851133  0.71030827    -0.71600
O119        O  0.95192054  0.02026278  0.66806234    -0.71500
O120        O  0.95805320  0.89805584  0.66904622    -0.71700
V121        V  0.03594484  0.00260958  0.66959726     1.35200
V122        V  0.95655422  0.95997272  0.66856277     1.35200
C123        C  0.00045856  0.89948211  0.66811909     0.77700
C124        C  0.99213511  0.06318202  0.67006702     0.77800
C125        C  0.99362860  0.97759656  0.72513539     0.77600
C126        C  0.99885891  0.98534289  0.61307927     0.77600
O127        O  0.95940222  0.52650740  0.66175270    -0.71500
O128        O  0.95516146  0.39916486  0.66305729    -0.71700
O129        O  0.95859227  0.46376423  0.70399176    -0.71600
O130        O  0.95607633  0.46160845  0.62056062    -0.71600
O131        O  0.03862687  0.50216578  0.61956437    -0.71600
O132        O  0.04112279  0.50163018  0.70291162    -0.71600
O133        O  0.03780778  0.43827050  0.66100585    -0.71500
O134        O  0.04212911  0.56591725  0.66177092    -0.71700
V135        V  0.95890429  0.46357671  0.66227911     1.35200
V136        V  0.03834386  0.50130359  0.66127658     1.35200
C137        C  0.00143542  0.56796088  0.66152995     0.77700
C138        C  0.99573260  0.39697942  0.66297400     0.77800
C139        C  0.00026624  0.48164153  0.71772588     0.77600
C140        C  0.99691484  0.48186311  0.60570719     0.77600
O141        O  0.54328580  0.03424489  0.71192432    -0.71500
O142        O  0.54575388  0.04052070  0.62823263    -0.71700
O143        O  0.54163054  0.09840225  0.67159498    -0.71600
O144        O  0.54836883  0.97701879  0.66842291    -0.71600
O145        O  0.46577652  0.93204354  0.66953111    -0.71600
O146        O  0.45909553  0.05414376  0.66915216    -0.71600
O147        O  0.46349560  0.99345910  0.62793890    -0.71500
O148        O  0.46070354  0.99227388  0.71099010    -0.71700
V149        V  0.54321826  0.03674227  0.67007000     1.35200
V150        V  0.46386252  0.99386481  0.66945617     1.35200
C151        C  0.50125019  0.01179074  0.72575917     0.77700
C152        C  0.50470426  0.01758501  0.61374676     0.77800
C153        C  0.49940987  0.09718769  0.67009189     0.77600
C154        C  0.50839848  0.93381579  0.66841503     0.77600
O155        O  0.55396694  0.60140001  0.66684129    -0.71500
O156        O  0.54701061  0.47278473  0.66608532    -0.71700
O157        O  0.55137880  0.53780978  0.62465733    -0.71600
O158        O  0.54917639  0.53595109  0.70832614    -0.71600
O159        O  0.46679296  0.49999253  0.70774069    -0.71600
O160        O  0.46877552  0.49795308  0.62441451    -0.71600
O161        O  0.46433946  0.43484261  0.66705736    -0.71500
O162        O  0.47135815  0.56340408  0.66498251    -0.71700
V163        V  0.54883365  0.53631422  0.66647616     1.35200
V164        V  0.46943556  0.49984432  0.66606155     1.35200
C165        C  0.51384393  0.60433959  0.66589027     0.77700
C166        C  0.50447831  0.43187883  0.66679826     0.77800
C167        C  0.51032177  0.51734428  0.61020548     0.77600
C168        C  0.50746460  0.51776082  0.72237987     0.77600
C169        C  0.51603174  0.65411482  0.66540171    -0.11700
C170        C  0.55255531  0.69649246  0.68155553     0.03800
C171        C  0.55138716  0.74210102  0.68126627    -0.12200
C172        C  0.51459714  0.74641502  0.66493511     0.18600
C173        C  0.47958669  0.70495964  0.64784074    -0.09300
C174        C  0.48002371  0.65906917  0.64853036    -0.02200
H175        H  0.57866205  0.77404968  0.69426185     0.05200
C176        C  0.51309146  0.79432281  0.66623339     0.20600
H177        H  0.45248889  0.62729672  0.63551971     0.10300
C178        C  0.55253597  0.83835663  0.65313330    -0.15600
C179        C  0.55209817  0.88431122  0.65364220     0.03300
C180        C  0.51123388  0.88649030  0.66744772    -0.10900
C181        C  0.47207472  0.84227829  0.68082254    -0.01000
C182        C  0.47308431  0.79665524  0.68063859    -0.06100
H183        H  0.58359114  0.83676580  0.64215520     0.06300
H184        H  0.44093503  0.84340494  0.69199222     0.09700
Br185      Br  0.43163639  0.70981033  0.62253303    -0.05800
Br186      Br  0.60276385  0.69376130  0.70591106    -0.02800
Br187      Br  0.60720342  0.94147661  0.63377013     0.00100
Br188      Br  0.42022611  0.73911076  0.70140101    -0.04300
C189        C  0.50214191  0.38204833  0.66689930    -0.11700
C190        C  0.46410437  0.33964829  0.68256464     0.03800
C191        C  0.46430528  0.29358561  0.68242956    -0.12200
C192        C  0.50163867  0.28878334  0.66678837     0.18600
C193        C  0.53868461  0.33050450  0.65045887    -0.09300
C194        C  0.53911842  0.37685137  0.65095134    -0.02200
H195        H  0.43555990  0.26144055  0.69494795     0.05200
C196        C  0.50114975  0.23987021  0.66786879     0.20600
H197        H  0.56801789  0.40877739  0.63837822     0.10300
C198        C  0.46196582  0.19725656  0.65368244    -0.15600
C199        C  0.46020670  0.15020008  0.65422824     0.03300
C200        C  0.49807482  0.14529956  0.66950006    -0.10900
C201        C  0.53706276  0.18814436  0.68384119    -0.01000
C202        C  0.53864187  0.23502211  0.68329836    -0.06100
H203        H  0.43310349  0.20088521  0.64175397     0.06300
H204        H  0.56625409  0.18509360  0.69578134     0.09700
Br205      Br  0.58813687  0.32537226  0.62635453    -0.05800
Br206      Br  0.41277609  0.34279979  0.70596119    -0.02800
Br207      Br  0.40727859  0.09561513  0.63196001     0.00100
Br208      Br  0.59185859  0.29088202  0.70465692    -0.04300
C209        C  0.00285385  0.85205873  0.66789051    -0.11700
C210        C  0.97244232  0.81117895  0.68703528     0.03800
C211        C  0.97475472  0.76624003  0.68563443    -0.12200
C212        C  0.00699033  0.76125726  0.66537778     0.18600
C213        C  0.03763649  0.80208933  0.64639784    -0.09300
C214        C  0.03579148  0.84729849  0.64796657    -0.02200
H215        H  0.95131253  0.73497727  0.70043044     0.05200
C216        C  0.00694140  0.71256439  0.66389288     0.20600
H217        H  0.05923241  0.87838841  0.63307642     0.10300
C218        C  0.96862130  0.67209462  0.64790647    -0.15600
C219        C  0.96645047  0.62489216  0.64651587     0.03300
C220        C  0.00310074  0.61761889  0.66150287    -0.10900
C221        C  0.04194435  0.65863478  0.67714128    -0.01000
C222        C  0.04385021  0.70573745  0.67857300    -0.06100
H223        H  0.94043070  0.67737749  0.63636848     0.06300
H224        H  0.07026445  0.65374036  0.68880778     0.09700
Br225      Br  0.08116010  0.79696117  0.61746891    -0.05800
Br226      Br  0.92927087  0.81565337  0.71654733    -0.02800
Br227      Br  0.91432128  0.57312890  0.62240849     0.00100
Br228      Br  0.09659689  0.75931875  0.70138059    -0.04300
C229        C  0.99026113  0.11093870  0.67028544    -0.11700
C230        C  0.95783339  0.11861584  0.65138933     0.03800
C231        C  0.95885539  0.16533444  0.65161013    -0.12200
C232        C  0.99174106  0.20471053  0.67041701     0.18600
C233        C  0.02325737  0.19678052  0.68971781    -0.09300
C234        C  0.02270701  0.15033150  0.68934023    -0.02200
H235        H  0.93471896  0.17139734  0.63663319     0.05200
C236        C  0.99359707  0.25426498  0.66892447     0.20600
H237        H  0.04747509  0.14483693  0.70412447     0.10300
C238        C  0.95599081  0.26021000  0.68336989    -0.15600
C239        C  0.95624331  0.30649321  0.68201224     0.03300
C240        C  0.99422997  0.34755099  0.66538244    -0.10900
C241        C  0.03231932  0.34156791  0.65133532    -0.01000
C242        C  0.03218618  0.29538859  0.65297693    -0.06100
H243        H  0.92668675  0.22883959  0.69609561     0.06300
H244        H  0.06204354  0.37276611  0.63872966     0.09700
Br245      Br  0.06723791  0.24822771  0.71702778    -0.05800
Br246      Br  0.91442302  0.06852214  0.62321815    -0.02800
Br247      Br  0.90611393  0.31216193  0.70521652     0.00100
Br248      Br  0.08497192  0.28977858  0.63282947    -0.04300
C249        C  0.50459936  0.49494744  0.91131331    -0.11700
C250        C  0.47945075  0.45122900  0.89313753     0.03800
C251        C  0.48059377  0.45692295  0.86251186    -0.12200
C252        C  0.50653170  0.50527996  0.84941277     0.18600
C253        C  0.53135885  0.54874796  0.86724981    -0.09300
C254        C  0.53033710  0.54338346  0.89778740    -0.02200
H255        H  0.46128478  0.42334340  0.84875350     0.05200
C256        C  0.50732669  0.50958742  0.81705848     0.20600
H257        H  0.54980445  0.57763134  0.91097201     0.10300
C258        C  0.46435893  0.50454683  0.80260485    -0.15600
C259        C  0.46351888  0.50784845  0.77191511     0.03300
C260        C  0.50654943  0.51612959  0.75506154    -0.10900
C261        C  0.54970849  0.52162437  0.76988657    -0.01000
C262        C  0.55023734  0.51819835  0.80053537    -0.06100
H263        H  0.43134112  0.49820325  0.81533073     0.06300
H264        H  0.58300699  0.52764487  0.75759442     0.09700
Br265      Br  0.56641496  0.61627235  0.85085222    -0.05800
Br266      Br  0.44233892  0.38262204  0.90796280    -0.02800
Br267      Br  0.40282194  0.50223445  0.75509946     0.00100
Br268      Br  0.60976005  0.52395657  0.81894876    -0.04300
C269        C  0.49964218  0.00869762  0.75834801    -0.11700
C270        C  0.45529692  0.97345452  0.77413242     0.03800
C271        C  0.45577115  0.97299791  0.80487352    -0.12200
C272        C  0.49954506  0.00675842  0.82039694     0.18600
C273        C  0.54393021  0.04104048  0.80496072    -0.09300
C274        C  0.54375183  0.04184891  0.77422159    -0.02200
H275        H  0.42169976  0.94618528  0.81680565     0.05200
C276        C  0.49796046  0.00602823  0.85276859     0.20600
H277        H  0.57822630  0.06893736  0.76274134     0.10300
C278        C  0.50682636  0.97106654  0.86801717    -0.15600
C279        C  0.50605031  0.96981206  0.89878354     0.03300
C280        C  0.49641142  0.00425735  0.91468761    -0.10900
C281        C  0.48745389  0.03914418  0.89922356    -0.01000
C282        C  0.48763480  0.03983458  0.86849277    -0.06100
H283        H  0.51485575  0.94504028  0.85591840     0.06300
H284        H  0.47951960  0.06546309  0.91107619     0.09700
Br285      Br  0.60550722  0.08731427  0.82509244    -0.05800
Br286      Br  0.39311530  0.92337346  0.75578431    -0.02800
Br287      Br  0.52149979  0.92240524  0.91760666     0.00100
Br288      Br  0.47272082  0.08682006  0.84876470    -0.04300
C289        C  0.86922734  0.48808514  0.99460062    -0.11700
C290        C  0.83018244  0.46011151  0.97416060     0.03800
C291        C  0.78467263  0.46138782  0.97562986    -0.12200
C292        C  0.77747305  0.49019267  0.99729256     0.18600
C293        C  0.81645263  0.51817474  0.01766792    -0.09300
C294        C  0.86215011  0.51735654  0.01604196    -0.02200
H295        H  0.75495540  0.44017003  0.95974619     0.05200
C296        C  0.72908237  0.49074137  0.99826422     0.20600
H297        H  0.89181056  0.53875197  0.03193733     0.10300
C298        C  0.68739448  0.45209182  0.01354130    -0.15600
C299        C  0.64093436  0.45149472  0.01495922     0.03300
C300        C  0.63578120  0.49029120  0.00080898    -0.10900
C301        C  0.67799966  0.52924872  0.98578995    -0.01000
C302        C  0.72423372  0.52945798  0.98426361    -0.06100
H303        H  0.69117986  0.42246836  0.02456838     0.06300
H304        H  0.67476008  0.55910796  0.97466415     0.09700
Br305      Br  0.80834655  0.55711866  0.04833654    -0.05800
Br306      Br  0.83836998  0.42219414  0.94283644    -0.02800
Br307      Br  0.58729230  0.39819293  0.03788286     0.00100
Br308      Br  0.77957401  0.58268086  0.96237699    -0.04300
C309        C  0.13004007  0.47986036  0.99465608    -0.11700
C310        C  0.16804184  0.50646417  0.97317699     0.03800
C311        C  0.21404640  0.50622582  0.97437749    -0.12200
C312        C  0.22276157  0.47954934  0.99663809     0.18600
C313        C  0.18447178  0.45210340  0.01773687    -0.09300
C314        C  0.13832565  0.45209338  0.01648327    -0.02200
H315        H  0.24317605  0.52686720  0.95784139     0.05200
C316        C  0.27248796  0.48176069  0.99776559     0.20600
H317        H  0.10933054  0.43144419  0.03308141     0.10300
C318        C  0.31450521  0.52505740  0.00956434    -0.15600
C319        C  0.36247599  0.52888219  0.01078947     0.03300
C320        C  0.36899690  0.48885231  0.99964531    -0.10900
C321        C  0.32644255  0.44541629  0.98795938    -0.01000
C322        C  0.27860374  0.44168861  0.98693383    -0.06100
H323        H  0.30976057  0.55583548  0.01815303     0.06300
H324        H  0.33038617  0.41424068  0.97925565     0.09700
Br325      Br  0.19435759  0.41566179  0.04912405    -0.05800
Br326      Br  0.15789876  0.54118144  0.94085536    -0.02800
Br327      Br  0.41609839  0.58841204  0.02944936     0.00100
Br328      Br  0.22286565  0.38156944  0.97014582    -0.04300
C329        C  0.00057334  0.47862508  0.75023878    -0.11700
C330        C  0.04299652  0.48368281  0.76615898     0.03800
C331        C  0.04076747  0.48050444  0.79686840    -0.12200
C332        C  0.99697092  0.47198640  0.81212111     0.18600
C333        C  0.95448767  0.46596638  0.79648878    -0.09300
C334        C  0.95643216  0.46914966  0.76584057    -0.02200
H335        H  0.07354413  0.48514771  0.80898291     0.05200
C336        C  0.99761224  0.47345801  0.84444074     0.20600
H337        H  0.92334689  0.46478636  0.75422724     0.10300
C338        C  0.01155172  0.51977178  0.85828379    -0.15600
C339        C  0.01195643  0.52333084  0.88889238     0.03300
C340        C  0.99860059  0.47953864  0.90637031    -0.10900
C341        C  0.98448778  0.43298779  0.89214924    -0.01000
C342        C  0.98387212  0.42974060  0.86144313    -0.06100
H343        H  0.02168283  0.55335278  0.84508237     0.06300
H344        H  0.97393712  0.39887447  0.90489391     0.09700
Br345      Br  0.89335470  0.45399970  0.81626313    -0.05800
Br346      Br  0.10460023  0.49327351  0.74793123    -0.02800
Br347      Br  0.02942295  0.58914167  0.90443988     0.00100
Br348      Br  0.96341484  0.36497487  0.84353458    -0.04300
C349        C  0.86017162  0.00323087  0.00706963    -0.11700
C350        C  0.85921505  0.04716601  0.01689414     0.03800
C351        C  0.81328130  0.04762170  0.01718798    -0.12200
C352        C  0.76779172  0.00483098  0.00834120     0.18600
C353        C  0.76828337  0.96071501  0.99911746    -0.09300
C354        C  0.81414830  0.96013424  0.99863342    -0.02200
H355        H  0.81292189  0.08148154  0.02457783     0.05200
C356        C  0.72046477  0.00747235  0.00814502     0.20600
H357        H  0.81389577  0.92607693  0.99105041     0.10300
C358        C  0.71418174  0.03688478  0.98653306    -0.15600
C359        C  0.66911177  0.03891158  0.98502119     0.03300
C360        C  0.62924544  0.01047700  0.00515303    -0.10900
C361        C  0.63603587  0.98188823  0.02711456    -0.01000
C362        C  0.68159138  0.98098359  0.02906828    -0.06100
H363        H  0.74425352  0.05778788  0.97051973     0.06300
H364        H  0.60603031  0.96081326  0.04312582     0.09700
Br365      Br  0.70760178  0.90108584  0.98595291    -0.05800
Br366      Br  0.91811834  0.10699749  0.03170104    -0.02800
Br367      Br  0.66286478  0.07850755  0.95406478     0.00100
Br368      Br  0.68987499  0.94474409  0.06120519    -0.04300
C369        C  0.12139743  0.99458484  0.99887534    -0.11700
C370        C  0.16351965  0.03048457  0.98204705     0.03800
C371        C  0.20919745  0.02955745  0.98234360    -0.12200
C372        C  0.21386670  0.99332000  0.99908975     0.18600
C373        C  0.17187648  0.95718903  0.01566810    -0.09300
C374        C  0.12594096  0.95770609  0.01522412    -0.02200
H375        H  0.24137353  0.05733758  0.96945706     0.05200
C376        C  0.26360184  0.99540671  0.99988405     0.20600
H377        H  0.09414748  0.93015300  0.02842887     0.10300
C378        C  0.30360451  0.03460295  0.01570586    -0.15600
C379        C  0.35144938  0.03824700  0.01699043     0.03300
C380        C  0.35981974  0.00200930  0.00216755    -0.10900
C381        C  0.31954296  0.96281834  0.98626795    -0.01000
C382        C  0.27190608  0.95962258  0.98479683    -0.06100
H383        H  0.29736599  0.06227150  0.02734958     0.06300
H384        H  0.32539164  0.93505268  0.97445539     0.09700
Br385      Br  0.17643936  0.90828036  0.04036987    -0.05800
Br386      Br  0.16063088  0.08024994  0.95716834    -0.02800
Br387      Br  0.40244834  0.09183556  0.04071719     0.00100
Br388      Br  0.21991276  0.90701340  0.96110288    -0.04300
C389        C  0.99168388  0.97573813  0.75779536    -0.11700
C390        C  0.03374491  0.98378798  0.77522890     0.03800
C391        C  0.03013219  0.98377276  0.80593811    -0.12200
C392        C  0.98531249  0.97560676  0.81981912     0.18600
C393        C  0.94307811  0.96640415  0.80272261    -0.09300
C394        C  0.94639499  0.96634270  0.77203879    -0.02200
H395        H  0.06264653  0.99055572  0.81912450     0.05200
C396        C  0.98418055  0.97921518  0.85213894     0.20600
H397        H  0.91356462  0.95987481  0.75929376     0.10300
C398        C  0.99727712  0.02625821  0.86486275    -0.15600
C399        C  0.99768413  0.03183039  0.89542672     0.03300
C400        C  0.98456236  0.98931994  0.91397020    -0.10900
C401        C  0.97093857  0.94201197  0.90087377    -0.01000
C402        C  0.97093919  0.93684520  0.87029086    -0.06100
H403        H  0.00737833  0.05895308  0.85084311     0.06300
H404        H  0.96097153  0.90888307  0.91444480     0.09700
Br405      Br  0.88045348  0.95450353  0.82046229    -0.05800
Br406      Br  0.09680662  0.99360425  0.75910864    -0.02800
Br407      Br  0.01552507  0.09846961  0.90966011     0.00100
Br408      Br  0.95309459  0.87147038  0.85415874    -0.04300
C409        C  0.50987231  0.51578510  0.57755363    -0.11700
C410        C  0.55259003  0.52408919  0.56040964     0.03800
C411        C  0.54892437  0.52102697  0.52970094    -0.12200
C412        C  0.50356466  0.50997578  0.51559323     0.18600
C413        C  0.46101863  0.50138574  0.53243506    -0.09300
C414        C  0.46438908  0.50434403  0.56305569    -0.02200
H415        H  0.58166732  0.52735040  0.51670394     0.05200
C416        C  0.50134022  0.50782393  0.48322770     0.20600
H417        H  0.43106408  0.49770532  0.57554935     0.10300
C418        C  0.49362734  0.46359305  0.46885150    -0.15600
C419        C  0.49080808  0.46023231  0.43814747     0.03300
C420        C  0.49613400  0.50195425  0.42141674    -0.10900
C421        C  0.50333043  0.54595734  0.43599990    -0.01000
C422        C  0.50622906  0.54921727  0.46664515    -0.06100
H423        H  0.48916888  0.43138430  0.48160912     0.06300
H424        H  0.50764311  0.57834249  0.42348740     0.09700
Br425      Br  0.39738099  0.48493288  0.51448966    -0.05800
Br426      Br  0.61649481  0.53787032  0.57693490    -0.02800
Br427      Br  0.47626456  0.39664074  0.42060675     0.00100
Br428      Br  0.51779326  0.61117328  0.48498784    -0.04300
C429        C  0.50022069  0.49038803  0.08846681    -0.11700
C430        C  0.54207970  0.52664063  0.10504012     0.03800
C431        C  0.53827300  0.52719883  0.13564193    -0.12200
C432        C  0.49333207  0.49223031  0.15013293     0.18600
C433        C  0.45159235  0.45598362  0.13378437    -0.09300
C434        C  0.45537257  0.45500997  0.10314221    -0.02200
H435        H  0.57070123  0.55471735  0.14827093     0.05200
C436        C  0.49163785  0.49320794  0.18244923     0.20600
H437        H  0.42283621  0.42721014  0.09071171     0.10300
C438        C  0.47171909  0.52066351  0.19643604    -0.15600
C439        C  0.47153474  0.52401733  0.22714134     0.03300
C440        C  0.49167354  0.49922427  0.24438446    -0.10900
C441        C  0.51144017  0.47162856  0.22994323    -0.01000
C442        C  0.51160699  0.46860620  0.19933251    -0.06100
H443        H  0.45672124  0.54002816  0.18333008     0.06300
H444        H  0.52692706  0.45210454  0.24245066     0.09700
Br445      Br  0.38901859  0.40732504  0.15251502    -0.05800
Br446      Br  0.60641116  0.57438302  0.08748414    -0.02800
Br447      Br  0.44444127  0.56429202  0.24330111     0.00100
Br448      Br  0.53949334  0.43045941  0.18137055    -0.04300
C449        C  0.50500542  0.01862982  0.58109104    -0.11700
C450        C  0.45950908  0.99648511  0.56427235     0.03800
C451        C  0.46230382  0.99729293  0.53359724    -0.12200
C452        C  0.50935451  0.02000204  0.51908622     0.18600
C453        C  0.55458149  0.04311309  0.53543681    -0.09300
C454        C  0.55221023  0.04214617  0.56616100    -0.02200
H455        H  0.42745503  0.97999742  0.52089031     0.05200
C456        C  0.51012605  0.01912037  0.48676758     0.20600
H457        H  0.58757281  0.05971515  0.57835277     0.10300
C458        C  0.50859303  0.05807033  0.47112555    -0.15600
C459        C  0.50753265  0.05759767  0.44039940     0.03300
C460        C  0.50769683  0.01712262  0.42485621    -0.10900
C461        C  0.50964208  0.97835586  0.44079268    -0.01000
C462        C  0.51059532  0.97901598  0.47151448    -0.06100
H463        H  0.50837130  0.08905150  0.48292277     0.06300
H464        H  0.50976985  0.94703077  0.42935669     0.09700
Br465      Br  0.62018834  0.07633971  0.51658501    -0.05800
Br466      Br  0.39187394  0.96499644  0.58078943    -0.02800
Br467      Br  0.50860925  0.11487428  0.42146958     0.00100
Br468      Br  0.51186616  0.92419765  0.49188841    -0.04300
C469        C  0.49824132  0.00922369  0.09159517    -0.11700
C470        C  0.46294164  0.96804571  0.10931192     0.03800
C471        C  0.46776885  0.97108335  0.13990474    -0.12200
C472        C  0.50747588  0.01410781  0.15340947     0.18600
C473        C  0.54360458  0.05445139  0.13592990    -0.09300
C474        C  0.53839143  0.05209939  0.10534242    -0.02200
H475        H  0.44012445  0.93974054  0.15332910     0.05200
C476        C  0.51028068  0.01565845  0.18579822     0.20600
H477        H  0.56663866  0.08352099  0.09223167     0.10300
C478        C  0.52187151  0.98210260  0.20047193    -0.15600
C479        C  0.52195978  0.98017348  0.23120559     0.03300
C480        C  0.51066104  0.01286640  0.24785598    -0.10900
C481        C  0.49887037  0.04631432  0.23289297    -0.01000
C482        C  0.49819441  0.04759576  0.20219725    -0.06100
H483        H  0.53003889  0.95661149  0.18787750     0.06300
H484        H  0.48959280  0.07136677  0.24508326     0.09700
Br485      Br  0.60186544  0.11222881  0.15279610    -0.05800
Br486      Br  0.40632089  0.90704634  0.09377433    -0.02800
Br487      Br  0.53440755  0.92950762  0.24844249     0.00100
Br488      Br  0.47774167  0.09146817  0.18369087    -0.04300
C489        C  0.99681315  0.48286158  0.57300415    -0.11700
C490        C  0.95169060  0.45744314  0.55599221     0.03800
C491        C  0.95477595  0.46091698  0.52525035    -0.12200
C492        C  0.00185369  0.48934296  0.51098443     0.18600
C493        C  0.04658016  0.51464058  0.52763488    -0.09300
C494        C  0.04389181  0.51111079  0.55826144    -0.02200
H495        H  0.92024310  0.44156916  0.51236434     0.05200
C496        C  0.00372396  0.49352587  0.47868501     0.20600
H497        H  0.07902231  0.53121384  0.57054778     0.10300
C498        C  0.99935171  0.53290491  0.46551524    -0.15600
C499        C  0.00279902  0.53938826  0.43496840     0.03300
C500        C  0.01036920  0.50549837  0.41699026    -0.10900
C501        C  0.01500663  0.46618913  0.43051643    -0.01000
C502        C  0.01171906  0.46005389  0.46106013    -0.06100
H503        H  0.99395680  0.55919291  0.47916152     0.06300
H504        H  0.02063991  0.43962168  0.41730160     0.09700
Br505      Br  0.11208710  0.55519554  0.50935757    -0.05800
Br506      Br  0.88449675  0.41730988  0.57252927    -0.02800
Br507      Br  0.99942716  0.59687337  0.41988676     0.00100
Br508      Br  0.01845989  0.40562508  0.47787473    -0.04300
C509        C  0.64010234  0.14630271  0.33704065    -0.11700
C510        C  0.68460186  0.15194514  0.35056744     0.03800
C511        C  0.73004324  0.19869610  0.34894636    -0.12200
C512        C  0.73218887  0.24028761  0.33416041     0.18600
C513        C  0.68805127  0.23489645  0.32069019    -0.09300
C514        C  0.64242156  0.18834659  0.32245798    -0.02200
H515        H  0.76391165  0.20276676  0.35939724     0.05200
C516        C  0.78130942  0.28846312  0.33254857     0.20600
H517        H  0.60894937  0.18467133  0.31169948     0.10300
C518        C  0.82088659  0.29030607  0.31550337    -0.15600
C519        C  0.86848346  0.33482075  0.31394099     0.03300
C520        C  0.87694568  0.37851141  0.32974133    -0.10900
C521        C  0.83707015  0.37653207  0.34669423    -0.01000
C522        C  0.78972134  0.33183506  0.34845705    -0.06100
H523        H  0.81455265  0.25697137  0.30322448     0.06300
H524        H  0.84309860  0.40956770  0.35917488     0.09700
Br525      Br  0.68879901  0.28912841  0.29844985    -0.05800
Br526      Br  0.68599273  0.09863384  0.37273263    -0.02800
Br527      Br  0.91908095  0.33418352  0.28859923     0.00100
Br528      Br  0.73859375  0.33108358  0.37391547    -0.04300
C529        C  0.14480720  0.64211986  0.32737740    -0.11700
C530        C  0.15016075  0.68646272  0.31364806     0.03800
C531        C  0.19637521  0.73242909  0.31545582    -0.15800
C532        C  0.23783232  0.73517311  0.33052434     0.18600
C533        C  0.23314675  0.69102691  0.34372505    -0.09300
C534        C  0.18693382  0.64491037  0.34200476    -0.02200
H535        H  0.20017864  0.76621197  0.30484877     0.05200
C536        C  0.28580532  0.78447506  0.33191460     0.20600
H537        H  0.18364232  0.61137828  0.35264318     0.10300
C538        C  0.29275385  0.81872837  0.35460534    -0.15600
C539        C  0.33749958  0.86620667  0.35616127     0.03300
C540        C  0.37619656  0.87951578  0.33492892    -0.10900
C541        C  0.36923347  0.84507961  0.31232560    -0.01000
C542        C  0.32411891  0.79809181  0.31046892    -0.06100
H543        H  0.26324554  0.80841000  0.37116328     0.06300
H544        H  0.39867733  0.85519161  0.29574969     0.09700
Br545      Br  0.28877751  0.69236706  0.36450258    -0.05800
Br546      Br  0.09717341  0.68648806  0.29062453    -0.02800
Br547      Br  0.34518522  0.91038129  0.38842667     0.00100
Br548      Br  0.31576673  0.75405739  0.27803464    -0.04300
C549        C  0.00431902  0.50527579  0.23989846    -0.11700
C550        C  0.96273157  0.50300864  0.22449876     0.03800
C551        C  0.96089496  0.49904002  0.19379075    -0.12200
C552        C  0.99950292  0.49670575  0.17801038     0.18600
C553        C  0.04092943  0.49904419  0.19321497    -0.09300
C554        C  0.04292284  0.50298100  0.22386831    -0.02200
H555        H  0.92884297  0.49713037  0.18214194     0.05200
C556        C  0.99674138  0.49322694  0.14561556     0.20600
H557        H  0.07518439  0.50479590  0.23520029     0.10300
C558        C  0.00761311  0.53667511  0.12926324    -0.15600
C559        C  0.00769431  0.53574559  0.09850973     0.03300
C560        C  0.99738741  0.49052229  0.08352221    -0.10900
C561        C  0.98468424  0.44652015  0.10014306    -0.01000
C562        C  0.98398812  0.44753212  0.13090355    -0.06100
H563        H  0.01625809  0.57162757  0.14054969     0.06300
H564        H  0.97562646  0.41117652  0.08921899     0.09700
Br565      Br  0.09630207  0.49840134  0.17290859    -0.05800
Br566      Br  0.90557272  0.50170836  0.24386907    -0.02800
Br567      Br  0.01949414  0.59695833  0.07886525     0.00100
Br568      Br  0.96446345  0.38550006  0.15198612    -0.04300
C569        C  0.99680608  0.99427183  0.42374824    -0.11700
C570        C  0.00702969  0.95941292  0.43887864     0.03800
C571        C  0.00756401  0.95910174  0.46964918    -0.12200
C572        C  0.99743088  0.99228556  0.48596517     0.18600
C573        C  0.98692362  0.02670198  0.47114108    -0.09300
C574        C  0.98674897  0.02753282  0.44038687    -0.02200
H575        H  0.01547135  0.93236029  0.48101213     0.05200
C576        C  0.99773389  0.99017751  0.51844350     0.20600
H577        H  0.97859323  0.05444533  0.42947974     0.10300
C578        C  0.03683268  0.03078613  0.53398860    -0.15600
C579        C  0.03823604  0.03017473  0.56474914     0.03300
C580        C  0.99987917  0.98798965  0.58052176    -0.10900
C581        C  0.96077120  0.94740939  0.56476099    -0.01000
C582        C  0.95961355  0.94811962  0.53403195    -0.06100
H583        H  0.06620153  0.06331174  0.52208963     0.06300
H584        H  0.93100104  0.91475441  0.57637012     0.09700
Br585      Br  0.97076968  0.07198902  0.49199218    -0.05800
Br586      Br  0.01845812  0.90943125  0.41964436    -0.02800
Br587      Br  0.09187422  0.08955812  0.58354425     0.00100
Br588      Br  0.90445314  0.89142071  0.51433102    -0.04300
C589        C  0.62528568  0.63553529  0.33149672    -0.11700
C590        C  0.63105269  0.67749935  0.31482933     0.03800
C591        C  0.67752635  0.72342531  0.31510906    -0.12200
C592        C  0.71848834  0.72844558  0.33186095     0.18600
C593        C  0.71251100  0.68700975  0.34890972    -0.09300
C594        C  0.66642908  0.64081840  0.34828783    -0.02200
H595        H  0.68191338  0.75529414  0.30203035     0.05200
C596        C  0.76686040  0.77751498  0.33172513     0.20600
H597        H  0.66233015  0.60924693  0.36155141     0.10300
C598        C  0.76899150  0.81956541  0.34594257    -0.15600
C599        C  0.81454982  0.86630568  0.34715578     0.03300
C600        C  0.85921927  0.87139104  0.33383019    -0.10900
C601        C  0.85651733  0.82916484  0.31922870    -0.01000
C602        C  0.81082253  0.78271507  0.31786257    -0.06100
H603        H  0.73509357  0.81568750  0.35660597     0.06300
H604        H  0.89003485  0.83240646  0.30843492     0.09700
Br605      Br  0.76536647  0.69256198  0.37441287    -0.05800
Br606      Br  0.57813004  0.67386430  0.29005969    -0.02800
Br607      Br  0.81309770  0.92014182  0.36874599     0.00100
Br608      Br  0.80987507  0.72789788  0.29611021    -0.04300
C609        C  0.12924703  0.13206808  0.33281855    -0.11700
C610        C  0.13512792  0.17469362  0.31684013     0.03800
C611        C  0.18238905  0.21957160  0.31621476    -0.12200
C612        C  0.22428873  0.22273289  0.33103307     0.18600
C613        C  0.21881502  0.18006161  0.34656317    -0.09300
C614        C  0.17161147  0.13501353  0.34712938    -0.02200
H615        H  0.18655448  0.25226899  0.30410032     0.05200
C616        C  0.27240359  0.27190452  0.33138553     0.20600
H617        H  0.16767758  0.10258503  0.35943266     0.10300
C618        C  0.27422180  0.31237041  0.34731045    -0.15600
C619        C  0.31884297  0.35979493  0.34833950     0.03300
C620        C  0.36298805  0.36706994  0.33335877    -0.10900
C621        C  0.36087778  0.32640873  0.31725807    -0.01000
C622        C  0.31583034  0.27931054  0.31581418    -0.06100
H623        H  0.24065019  0.30684907  0.35918377     0.06300
H624        H  0.39409858  0.33164542  0.30512807     0.09700
Br625      Br  0.27387969  0.18237026  0.36852725    -0.05800
Br626      Br  0.08120595  0.17335921  0.29406554    -0.02800
Br627      Br  0.31715959  0.41185793  0.37167212     0.00100
Br628      Br  0.31455565  0.22714003  0.29122351    -0.04300
C629        C  0.99725429  0.00681802  0.09100128    -0.11700
C630        C  0.99750490  0.96869355  0.10880936     0.03800
C631        C  0.99735069  0.97276527  0.13943423    -0.12200
C632        C  0.99686054  0.01418042  0.15283375     0.18600
C633        C  0.99772153  0.05278542  0.13524365    -0.09300
C634        C  0.99797029  0.04892436  0.10458340    -0.02200
H635        H  0.99762922  0.94343110  0.15293146     0.05200
C636        C  0.99652503  0.01646755  0.18523775     0.20600
H637        H  0.99799966  0.07864561  0.09131969     0.10300
C638        C  0.04114103  0.02824468  0.20050278    -0.15600
C639        C  0.04136822  0.02683407  0.23121777     0.03300
C640        C  0.99614501  0.01302857  0.24711326    -0.10900
C641        C  0.95191594  0.00288203  0.23183694    -0.01000
C642        C  0.95170486  0.00405842  0.20107044    -0.06100
H643        H  0.07588266  0.03824496  0.18840582     0.06300
H644        H  0.91695862  0.99231134  0.24383681     0.09700
Br645      Br  0.99931174  0.11163393  0.15215024    -0.05800
Br646      Br  0.00092525  0.91163541  0.09297544    -0.02800
Br647      Br  0.10500039  0.04643477  0.25030344     0.00100
Br648      Br  0.88885615  0.98580927  0.18155041    -0.04300
loop_ 
_geom_bond_atom_site_label_1 
_geom_bond_atom_site_label_2 
_geom_bond_distance 
_geom_bond_site_symmetry_2 
_ccdc_geom_bond_type 
O1            V9   1.896   1_565  S
O1           C11   1.263       .  A
O2            V9   1.895   1_455  S
O2           C12   1.263       .  A
O3            V9   1.901       .  S
O3           C13   1.264       .  A
O4            V9   1.902       .  S
O4           C14   1.266   1_545  A
O5           V10   1.896       .  S
O5           C14   1.263   1_455  A
O6           V10   1.894       .  S
O6           C13   1.263   1_465  A
O7           V10   1.897   1_545  S
O7           C12   1.264       .  A
O8           V10   1.899   1_655  S
O8           C11   1.265       .  A
V9           V10   2.085   1_645  T
C11         C600   1.480       .  S
C12         C609   1.473       .  S
C13         C640   1.472       .  S
C14         C569   1.487       .  S
O15          V23   1.904       .  S
O15          C25   1.266       .  A
O16          V23   1.900   1_655  S
O16          C26   1.264       .  A
O17          V23   1.898       .  S
O17          C27   1.265       .  A
O18          V23   1.898       .  S
O18          C28   1.265       .  A
O19          V24   1.898       .  S
O19          C28   1.264   1_655  A
O20          V24   1.899       .  S
O20          C27   1.264   1_655  A
O21          V24   1.893       .  S
O21          C26   1.263       .  A
O22          V24   1.895   1_455  S
O22          C25   1.263       .  A
V23          V24   2.085   1_455  T
C25         C529   1.480       .  S
C26         C520   1.475       .  S
C27         C549   1.481       .  S
C28         C500   1.483       .  S
O29          V37   1.900       .  S
O29          C39   1.265       .  A
O30          V37   1.902   1_565  S
O30          C40   1.264       .  A
O31          V37   1.892       .  S
O31          C41   1.262       .  A
O32          V37   1.895       .  S
O32          C42   1.265       .  A
O33          V38   1.897       .  S
O33          C42   1.263   1_565  A
O34          V38   1.900       .  S
O34          C41   1.265   1_565  A
O35          V38   1.896       .  S
O35          C40   1.263       .  A
O36          V38   1.894   1_545  S
O36          C39   1.262       .  A
V37          V38   2.085   1_545  T
C39         C509   1.478       .  S
C40         C540   1.470       .  S
C41         C460   1.478       .  S
C42         C480   1.482       .  S
O43          V51   1.898       .  S
O43          C53   1.264       .  A
O44          V51   1.899       .  S
O44          C54   1.265       .  A
O45          V51   1.896       .  S
O45          C55   1.263       .  A
O46          V51   1.895       .  S
O46          C56   1.265       .  A
O47          V52   1.897       .  S
O47          C56   1.263       .  A
O48          V52   1.898       .  S
O48          C55   1.265       .  A
O49          V52   1.895       .  S
O49          C54   1.263       .  A
O50          V52   1.894       .  S
O50          C53   1.263       .  A
V51          V52   2.085       .  T
C53         C620   1.475       .  S
C54         C589   1.475       .  S
C55         C420   1.475       .  S
C56         C440   1.485       .  S
O57          V65   1.894   1_655  S
O57          C67   1.262       .  A
O58          V65   1.894   1_556  S
O58          C68   1.263   1_546  A
O59          V65   1.898   1_556  S
O59          C69   1.263   1_445  A
O60          V65   1.899       .  S
O60          C70   1.265   1_455  A
O61          V66   1.897       .  S
O61          C70   1.264   1_565  A
O62          V66   1.900   1_556  S
O62          C69   1.266       .  A
O63          V66   1.903   1_455  S
O63          C68   1.265       .  A
O64          V66   1.903       .  S
O64          C67   1.266   1_565  A
V65          V66   2.085   1_445  T
C67         C349   1.482       .  S
C68         C369   1.477   1_554  S
C69         C400   1.487       .  S
C70         C629   1.479       .  S
O71          V79   1.901   1_455  S
O71          C81   1.264       .  A
O72          V79   1.898       .  S
O72          C82   1.264       .  A
O73          V79   1.903       .  S
O73          C83   1.266       .  A
O74          V79   1.904   1_554  S
O74          C84   1.267       .  A
O75          V80   1.893   1_554  S
O75          C84   1.262   1_455  A
O76          V80   1.890       .  S
O76          C83   1.261   1_455  A
O77          V80   1.899   1_655  S
O77          C82   1.264       .  A
O78          V80   1.898       .  S
O78          C81   1.264       .  A
V79          V80   2.084   1_655  T
C81         C309   1.472       .  S
C82         C289   1.471       .  S
C83         C340   1.484       .  S
C84         C560   1.484       .  S
O85          V93   1.896       .  S
O85          C95   1.263   1_565  A
O86          V93   1.899       .  S
O86          C96   1.265   1_565  A
O87          V93   1.897   1_556  S
O87          C97   1.263   1_565  A
O88          V93   1.895       .  S
O88          C98   1.263   1_565  A
O89          V94   1.900       .  S
O89          C98   1.265       .  A
O90          V94   1.898   1_556  S
O90          C97   1.265       .  A
O91          V94   1.900       .  S
O91          C96   1.264       .  A
O92          V94   1.900       .  S
O92          C95   1.264       .  A
V93          V94   2.085   1_565  T
C95         C360   1.471       .  S
C96         C380   1.480       .  S
C97         C280   1.475       .  S
C98         C469   1.481       .  S
O99         V107   1.904       .  S
O99         C109   1.265       .  A
O100        V107   1.904   1_556  S
O100        C110   1.266   1_556  A
O101        V107   1.891   1_556  S
O101        C111   1.263       .  A
O102        V107   1.890       .  S
O102        C112   1.261       .  A
O103        V108   1.904   1_554  S
O103        C112   1.266       .  A
O104        V108   1.906       .  S
O104        C111   1.265       .  A
O105        V108   1.895   1_554  S
O105        C110   1.263       .  A
O106        V108   1.893       .  S
O106        C109   1.263   1_556  A
V107        V108   2.084   1_554  T
C109        C320   1.483   1_554  S
C110        C300   1.480       .  S
C111        C249   1.489       .  S
C112        C429   1.473       .  S
O113        V121   1.900   1_565  S
O113        C123   1.264       .  A
O114        V121   1.898       .  S
O114        C124   1.264   1_455  A
O115        V121   1.899   1_565  S
O115        C125   1.264   1_455  A
O116        V121   1.899       .  S
O116        C126   1.264   1_445  A
O117        V122   1.899       .  S
O117        C126   1.265       .  A
O118        V122   1.899       .  S
O118        C125   1.265       .  A
O119        V122   1.900   1_545  S
O119        C124   1.264       .  A
O120        V122   1.898       .  S
O120        C123   1.264   1_655  A
V121        V122   2.085   1_445  T
C123        C209   1.474       .  S
C124        C229   1.475       .  S
C125        C389   1.485       .  S
C126        C580   1.482       .  S
O127        V135   1.898       .  S
O127        C137   1.264   1_655  A
O128        V135   1.896       .  S
O128        C138   1.263       .  A
O129        V135   1.896       .  S
O129        C139   1.265   1_655  A
O130        V135   1.898       .  S
O130        C140   1.263       .  A
O131        V136   1.896       .  S
O131        C140   1.265   1_455  A
O132        V136   1.895       .  S
O132        C139   1.262       .  A
O133        V136   1.900       .  S
O133        C138   1.265   1_455  A
O134        V136   1.902       .  S
O134        C137   1.265       .  A
V135        V136   2.084   1_655  T
C137        C220   1.479       .  S
C138        C240   1.478       .  S
C139        C329   1.481       .  S
C140        C489   1.487       .  S
O141        V149   1.904       .  S
O141        C151   1.267       .  A
O142        V149   1.904       .  S
O142        C152   1.267       .  A
O143        V149   1.893       .  S
O143        C153   1.263       .  A
O144        V149   1.893   1_565  S
O144        C154   1.262       .  A
O145        V150   1.901       .  S
O145        C154   1.266       .  A
O146        V150   1.902   1_545  S
O146        C153   1.265       .  A
O147        V150   1.887       .  S
O147        C152   1.260   1_565  A
O148        V150   1.889       .  S
O148        C151   1.261   1_565  A
V149        V150   2.084   1_545  T
C151        C269   1.483       .  S
C152        C449   1.485       .  S
C153        C200   1.478       .  S
C154        C180   1.478       .  S
O155        V163   1.898       .  S
O155        C165   1.263       .  A
O156        V163   1.897       .  S
O156        C166   1.264       .  A
O157        V163   1.902       .  S
O157        C167   1.264       .  A
O158        V163   1.903       .  S
O158        C168   1.266       .  A
O159        V164   1.896       .  S
O159        C168   1.263       .  A
O160        V164   1.894       .  S
O160        C167   1.264       .  A
O161        V164   1.896       .  S
O161        C166   1.263       .  A
O162        V164   1.897       .  S
O162        C165   1.264       .  A
V163        V164   2.085       .  T
C165        C169   1.475       .  S
C166        C189   1.475       .  S
C167        C409   1.485       .  S
C168        C260   1.486       .  S
C169        C170   1.413       .  A
C169        C174   1.404       .  A
C170        C171   1.399       .  A
C170       Br186   1.920       .  S
C171        C172   1.401       .  A
C171        H175   1.082       .  S
C172        C176   1.475       .  S
C172        C173   1.407       .  A
C173        C174   1.397       .  A
C173       Br185   1.920       .  S
C174        H177   1.083       .  S
C176        C178   1.400       .  A
C176        C182   1.407       .  A
C178        C179   1.398       .  A
C178        H183   1.085       .  S
C179        C180   1.416       .  A
C179       Br187   1.922       .  S
C180        C181   1.405       .  A
C181        C182   1.397       .  A
C181        H184   1.084       .  S
C182       Br188   1.920       .  S
C189        C190   1.413       .  A
C189        C194   1.405       .  A
C190        C191   1.398       .  A
C190       Br206   1.921       .  S
C191        C192   1.401       .  A
C191        H195   1.085       .  S
C192        C196   1.474       .  S
C192        C193   1.407       .  A
C193        C194   1.397       .  A
C193       Br205   1.920       .  S
C194        H197   1.085       .  S
C196        C198   1.401       .  A
C196        C202   1.406       .  A
C198        C199   1.399       .  A
C198        H203   1.082       .  S
C199        C200   1.413       .  A
C199       Br207   1.921       .  S
C200        C201   1.406       .  A
C201        C202   1.396       .  A
C201        H204   1.082       .  S
C202       Br208   1.920       .  S
C209        C210   1.411   1_455  A
C209        C214   1.404       .  A
C210        C211   1.398       .  A
C210       Br226   1.920       .  S
C211        C212   1.401   1_655  A
C211        H215   1.084       .  S
C212        C216   1.475       .  S
C212        C213   1.407       .  A
C213        C214   1.399       .  A
C213       Br225   1.918       .  S
C214        H217   1.084       .  S
C216        C218   1.400   1_455  A
C216        C222   1.406       .  A
C218        C219   1.399       .  A
C218        H223   1.082       .  S
C219        C220   1.413   1_655  A
C219       Br227   1.921       .  S
C220        C221   1.406       .  A
C221        C222   1.400       .  A
C221        H224   1.082       .  S
C222       Br228   1.918       .  S
C229        C230   1.412       .  A
C229        C234   1.405   1_655  A
C230        C231   1.399       .  A
C230       Br246   1.920       .  S
C231        C232   1.401       .  A
C231        H235   1.082       .  S
C232        C236   1.475       .  S
C232        C233   1.406   1_655  A
C233        C234   1.398       .  A
C233       Br245   1.918       .  S
C234        H237   1.083       .  S
C236        C238   1.400       .  A
C236        C242   1.406   1_655  A
C238        C239   1.399       .  A
C238        H243   1.085       .  S
C239        C240   1.415       .  A
C239       Br247   1.922       .  S
C240        C241   1.405   1_655  A
C241        C242   1.398       .  A
C241        H244   1.084       .  S
C242       Br248   1.919       .  S
C249        C250   1.418       .  A
C249        C254   1.410       .  A
C250        C251   1.401       .  A
C250       Br266   1.921       .  S
C251        C252   1.400       .  A
C251        H255   1.084       .  S
C252        C256   1.476       .  S
C252        C253   1.403       .  A
C253        C254   1.396       .  A
C253       Br265   1.919       .  S
C254        H257   1.083       .  S
C256        C258   1.399       .  A
C256        C262   1.405       .  A
C258        C259   1.400       .  A
C258        H263   1.083       .  S
C259        C260   1.418       .  A
C259       Br267   1.922       .  S
C260        C261   1.408       .  A
C261        C262   1.398       .  A
C261        H264   1.083       .  S
C262       Br268   1.919       .  S
C269        C270   1.419   1_545  A
C269        C274   1.407       .  A
C270        C271   1.398       .  A
C270       Br286   1.923       .  S
C271        C272   1.397   1_565  A
C271        H275   1.084       .  S
C272        C276   1.472       .  S
C272        C273   1.404       .  A
C273        C274   1.398       .  A
C273       Br285   1.918       .  S
C274        H277   1.083       .  S
C276        C278   1.400   1_545  A
C276        C282   1.405       .  A
C278        C279   1.399       .  A
C278        H283   1.083       .  S
C279        C280   1.413   1_565  A
C279       Br287   1.921       .  S
C280        C281   1.405       .  A
C281        C282   1.397       .  A
C281        H284   1.083       .  S
C282       Br288   1.919       .  S
C289        C290   1.410       .  A
C289        C294   1.403   1_556  A
C290        C291   1.399       .  A
C290       Br306   1.920       .  S
C291        C292   1.402       .  A
C291        H295   1.082       .  S
C292        C296   1.475       .  S
C292        C293   1.407   1_556  A
C293        C294   1.398       .  A
C293       Br305   1.918       .  S
C294        H297   1.083       .  S
C296        C298   1.400   1_556  A
C296        C302   1.405       .  A
C298        C299   1.399       .  A
C298        H303   1.083       .  S
C299        C300   1.415       .  A
C299       Br307   1.921       .  S
C300        C301   1.405   1_554  A
C301        C302   1.399       .  A
C301        H304   1.083       .  S
C302       Br308   1.918       .  S
C309        C310   1.410       .  A
C309        C314   1.403   1_556  A
C310        C311   1.398       .  A
C310       Br326   1.920       .  S
C311        C312   1.401       .  A
C311        H315   1.085       .  S
C312        C316   1.475       .  S
C312        C313   1.407   1_556  A
C313        C314   1.399       .  A
C313       Br325   1.918       .  S
C314        H317   1.084       .  S
C316        C318   1.401   1_556  A
C316        C322   1.404       .  A
C318        C319   1.400       .  A
C318        H323   1.084       .  S
C319        C320   1.415   1_554  A
C319       Br327   1.920       .  S
C320        C321   1.408       .  A
C321        C322   1.397       .  A
C321        H324   1.083       .  S
C322       Br328   1.919       .  S
C329        C330   1.418       .  A
C329        C334   1.407   1_455  A
C330        C331   1.398       .  A
C330       Br346   1.922       .  S
C331        C332   1.398   1_455  A
C331        H335   1.084       .  S
C332        C336   1.470       .  S
C332        C333   1.403       .  A
C333        C334   1.395       .  A
C333       Br345   1.918       .  S
C334        H337   1.083       .  S
C336        C338   1.396   1_655  A
C336        C342   1.403       .  A
C338        C339   1.395       .  A
C338        H343   1.084       .  S
C339        C340   1.419   1_455  A
C339       Br347   1.923       .  S
C340        C341   1.409       .  A
C341        C342   1.399       .  A
C341        H344   1.083       .  S
C342       Br348   1.918       .  S
C349        C350   1.417       .  A
C349        C354   1.406   1_544  A
C350        C351   1.398       .  A
C350       Br366   1.922       .  S
C351        C352   1.399       .  A
C351        H355   1.084       .  S
C352        C356   1.475       .  S
C352        C353   1.407   1_544  A
C353        C354   1.398       .  A
C353       Br365   1.920       .  S
C354        H357   1.083       .  S
C356        C358   1.402   1_554  A
C356        C362   1.407   1_545  A
C358        C359   1.399       .  A
C358        H363   1.085       .  S
C359        C360   1.409   1_556  A
C359       Br367   1.920       .  S
C360        C361   1.403   1_545  A
C361        C362   1.397       .  A
C361        H364   1.085       .  S
C362       Br368   1.919       .  S
C369        C370   1.413   1_565  A
C369        C374   1.405   1_556  A
C370        C371   1.398       .  A
C370       Br386   1.921       .  S
C371        C372   1.400   1_545  A
C371        H375   1.084       .  S
C372        C376   1.476       .  S
C372        C373   1.408   1_556  A
C373        C374   1.400       .  A
C373       Br385   1.919       .  S
C374        H377   1.084       .  S
C376        C378   1.401   1_566  A
C376        C382   1.406       .  A
C378        C379   1.399       .  A
C378        H383   1.084       .  S
C379        C380   1.414       .  A
C379       Br387   1.920       .  S
C380        C381   1.406   1_544  A
C381        C382   1.399       .  A
C381        H384   1.084       .  S
C382       Br388   1.919       .  S
C389        C390   1.418   1_655  A
C389        C394   1.408       .  A
C390        C391   1.400       .  A
C390       Br406   1.921       .  S
C391        C392   1.399   1_455  A
C391        H395   1.084       .  S
C392        C396   1.475       .  S
C392        C393   1.404       .  A
C393        C394   1.398       .  A
C393       Br405   1.918       .  S
C394        H397   1.083       .  S
C396        C398   1.399   1_565  A
C396        C402   1.404       .  A
C398        C399   1.399       .  A
C398        H403   1.084   1_655  S
C399        C400   1.418   1_545  A
C399       Br407   1.922   1_655  S
C400        C401   1.409       .  A
C401        C402   1.399       .  A
C401        H404   1.083       .  S
C402       Br408   1.918       .  S
C409        C410   1.418       .  A
C409        C414   1.408       .  A
C410        C411   1.400       .  A
C410       Br426   1.921       .  S
C411        C412   1.400       .  A
C411        H415   1.083       .  S
C412        C416   1.473       .  S
C412        C413   1.403       .  A
C413        C414   1.396       .  A
C413       Br425   1.919       .  S
C414        H417   1.083       .  S
C416        C418   1.401       .  A
C416        C422   1.405       .  A
C418        C419   1.399       .  A
C418        H423   1.083       .  S
C419        C420   1.413       .  A
C419       Br427   1.921       .  S
C420        C421   1.404       .  A
C421        C422   1.397       .  A
C421        H424   1.083       .  S
C422       Br428   1.918       .  S
C429        C430   1.413       .  A
C429        C434   1.405       .  A
C430        C431   1.396       .  A
C430       Br446   1.921       .  S
C431        C432   1.399       .  A
C431        H435   1.084       .  S
C432        C436   1.470       .  S
C432        C433   1.405       .  A
C433        C434   1.399       .  A
C433       Br445   1.918       .  S
C434        H437   1.083       .  S
C436        C438   1.399       .  A
C436        C442   1.402       .  A
C438        C439   1.400       .  A
C438        H443   1.084       .  S
C439        C440   1.419       .  A
C439       Br447   1.922       .  S
C440        C441   1.408       .  A
C441        C442   1.395       .  A
C441        H444   1.083       .  S
C442       Br448   1.919       .  S
C449        C450   1.421   1_545  A
C449        C454   1.409       .  A
C450        C451   1.396       .  A
C450       Br466   1.924       .  S
C451        C452   1.396   1_565  A
C451        H455   1.084       .  S
C452        C456   1.470       .  S
C452        C453   1.403       .  A
C453        C454   1.398       .  A
C453       Br465   1.918       .  S
C454        H457   1.083       .  S
C456        C458   1.398       .  A
C456        C462   1.404   1_545  A
C458        C459   1.397       .  A
C458        H463   1.083       .  S
C459        C460   1.416       .  A
C459       Br467   1.922       .  S
C460        C461   1.406   1_545  A
C461        C462   1.397       .  A
C461        H464   1.083       .  S
C462       Br468   1.918       .  S
C469        C470   1.416   1_545  A
C469        C474   1.408       .  A
C470        C471   1.397       .  A
C470       Br486   1.921       .  S
C471        C472   1.400   1_565  A
C471        H475   1.084       .  S
C472        C476   1.475       .  S
C472        C473   1.406       .  A
C473        C474   1.398       .  A
C473       Br485   1.920       .  S
C474        H477   1.083       .  S
C476        C478   1.400   1_545  A
C476        C482   1.406       .  A
C478        C479   1.398       .  A
C478        H483   1.083       .  S
C479        C480   1.416   1_565  A
C479       Br487   1.922       .  S
C480        C481   1.407       .  A
C481        C482   1.396       .  A
C481        H484   1.083       .  S
C482       Br488   1.920       .  S
C489        C490   1.420       .  A
C489        C494   1.409   1_655  A
C490        C491   1.401       .  A
C490       Br506   1.922       .  S
C491        C492   1.399   1_655  A
C491        H495   1.083       .  S
C492        C496   1.472       .  S
C492        C493   1.402       .  A
C493        C494   1.395       .  A
C493       Br505   1.919       .  S
C494        H497   1.083       .  S
C496        C498   1.399   1_455  A
C496        C502   1.404       .  A
C498        C499   1.399   1_655  A
C498        H503   1.083       .  S
C499        C500   1.416       .  A
C499       Br507   1.921   1_455  S
C500        C501   1.408       .  A
C501        C502   1.397       .  A
C501        H504   1.083       .  S
C502       Br508   1.919       .  S
C509        C510   1.415       .  A
C509        C514   1.406       .  A
C510        C511   1.397       .  A
C510       Br526   1.922       .  S
C511        C512   1.400       .  A
C511        H515   1.082       .  S
C512        C516   1.474       .  S
C512        C513   1.407       .  A
C513        C514   1.397       .  A
C513       Br525   1.919       .  S
C514        H517   1.082       .  S
C516        C518   1.402       .  A
C516        C522   1.407       .  A
C518        C519   1.398       .  A
C518        H523   1.083       .  S
C519        C520   1.412       .  A
C519       Br527   1.920       .  S
C520        C521   1.405       .  A
C521        C522   1.397       .  A
C521        H524   1.083       .  S
C522       Br528   1.920       .  S
C529        C530   1.414       .  A
C529        C534   1.406       .  A
C530        C531   1.398       .  A
C530       Br546   1.921       .  S
C531        C532   1.399       .  A
C531        H535   1.084       .  S
C532        C536   1.474       .  S
C532        C533   1.406       .  A
C533        C534   1.400       .  A
C533       Br545   1.918       .  S
C534        H537   1.083       .  S
C536        C538   1.402       .  A
C536        C542   1.406       .  A
C538        C539   1.400       .  A
C538        H543   1.085       .  S
C539        C540   1.409       .  A
C539       Br547   1.919       .  S
C540        C541   1.403       .  A
C541        C542   1.398       .  A
C541        H544   1.085       .  S
C542       Br548   1.918       .  S
C549        C550   1.416   1_455  A
C549        C554   1.406       .  A
C550        C551   1.400       .  A
C550       Br566   1.921       .  S
C551        C552   1.401       .  A
C551        H555   1.084       .  S
C552        C556   1.476       .  S
C552        C553   1.406   1_655  A
C553        C554   1.397       .  A
C553       Br565   1.919       .  S
C554        H557   1.084       .  S
C556        C558   1.399   1_655  A
C556        C562   1.406       .  A
C558        C559   1.398       .  A
C558        H563   1.084       .  S
C559        C560   1.418   1_455  A
C559       Br567   1.922       .  S
C560        C561   1.407       .  A
C561        C562   1.399       .  A
C561        H564   1.083       .  S
C562       Br568   1.918       .  S
C569        C570   1.419   1_655  A
C569        C574   1.408   1_565  A
C570        C571   1.399       .  A
C570       Br586   1.922       .  S
C571        C572   1.400   1_455  A
C571        H575   1.084       .  S
C572        C576   1.478       .  S
C572        C573   1.406   1_565  A
C573        C574   1.398       .  A
C573       Br585   1.919       .  S
C574        H577   1.084       .  S
C576        C578   1.401   1_665  A
C576        C582   1.407       .  A
C578        C579   1.400       .  A
C578        H583   1.083       .  S
C579        C580   1.415   1_445  A
C579       Br587   1.921       .  S
C580        C581   1.406       .  A
C581        C582   1.398       .  A
C581        H584   1.083       .  S
C582       Br588   1.919       .  S
C589        C590   1.413       .  A
C589        C594   1.404       .  A
C590        C591   1.399       .  A
C590       Br606   1.921       .  S
C591        C592   1.401       .  A
C591        H595   1.083       .  S
C592        C596   1.475       .  S
C592        C593   1.407       .  A
C593        C594   1.397       .  A
C593       Br605   1.919       .  S
C594        H597   1.083       .  S
C596        C598   1.400       .  A
C596        C602   1.406       .  A
C598        C599   1.399       .  A
C598        H603   1.085       .  S
C599        C600   1.416       .  A
C599       Br607   1.921       .  S
C600        C601   1.406       .  A
C601        C602   1.396       .  A
C601        H604   1.085       .  S
C602       Br608   1.919       .  S
C609        C610   1.412       .  A
C609        C614   1.404       .  A
C610        C611   1.396       .  A
C610       Br626   1.921       .  S
C611        C612   1.400       .  A
C611        H615   1.084       .  S
C612        C616   1.473       .  S
C612        C613   1.407       .  A
C613        C614   1.398       .  A
C613       Br625   1.919       .  S
C614        H617   1.083       .  S
C616        C618   1.400       .  A
C616        C622   1.406       .  A
C618        C619   1.396       .  A
C618        H623   1.085       .  S
C619        C620   1.413       .  A
C619       Br627   1.921       .  S
C620        C621   1.406       .  A
C621        C622   1.398       .  A
C621        H624   1.085       .  S
C622       Br628   1.919       .  S
C629        C630   1.413   1_545  A
C629        C634   1.407       .  A
C630        C631   1.398       .  A
C630       Br646   1.921   1_655  S
C631        C632   1.400   1_565  A
C631        H635   1.083       .  S
C632        C636   1.475       .  S
C632        C633   1.406       .  A
C633        C634   1.399       .  A
C633       Br645   1.919       .  S
C634        H637   1.083       .  S
C636        C638   1.401   1_655  A
C636        C642   1.408       .  A
C638        C639   1.397       .  A
C638        H643   1.085       .  S
C639        C640   1.411   1_455  A
C639       Br647   1.921       .  S
C640        C641   1.403       .  A
C641        C642   1.399       .  A
C641        H644   1.085   1_545  S
C642       Br648   1.918   1_545  S
