geometry optimzed in LAMMPS
_audit_creation_date              2020-11-30 
_audit_creation_method            'lammps2cif' 
_symmetry_space_group_name_H-M    'P1' 
_symmetry_Int_Tables_number       1 
_symmetry_cell_setting            triclinic 
loop_ 
_symmetry_equiv_pos_as_xyz 
  x,y,z 
_cell_length_a                    35.38929924699003 
_cell_length_b                    39.192699495476575 
_cell_length_c                    22.76795851789322 
_cell_angle_alpha                 90.98014469729189 
_cell_angle_beta                  88.13379615168957 
_cell_angle_gamma                 112.20182139561663 
loop_ 
_atom_site_label 
_atom_site_type_symbol 
_atom_site_fract_x 
_atom_site_fract_y 
_atom_site_fract_z 
_atom_site_charge 
O1          O  0.27111826  0.32765223  0.55972057    -0.79760
O2          O  0.27431903  0.46786938  0.68374711    -0.64440
O3          O  0.31137910  0.39526172  0.62283515    -1.11050
C4          C  0.24184550  0.32929608  0.78985235     1.07130
O5          O  0.29308144  0.46372511  0.77446093    -0.77650
O6          O  0.32831190  0.41286850  0.79584754    -0.65230
Ni7        Ni  0.30273164  0.37958424  0.54223533     1.34870
C8          C  0.34371402  0.39129378  0.77197492     0.85870
O9          O  0.32163078  0.46637722  0.58891451    -0.78190
O10         O  0.33255806  0.42980233  0.51792177    -0.88470
C11         C  0.27685304  0.47761788  0.73730794     0.85440
O12         O  0.25255729  0.38550642  0.53006920    -0.66670
O13         O  0.25220930  0.36047237  0.81614959    -0.85960
C14         C  0.23169834  0.39959636  0.56094263     0.86270
C15         C  0.33577719  0.46139561  0.53833428     1.07840
H16         H  0.23635757  0.38979020  0.70565385     0.39640
O17         O  0.26544243  0.39778975  0.71070188    -1.08620
O18         O  0.32875566  0.37123492  0.72744702    -0.65270
Ni19       Ni  0.28146553  0.36016376  0.67994711     1.26350
O20         O  0.24353890  0.41620864  0.60907463    -0.65500
O21         O  0.24955348  0.32535694  0.73599760    -0.77790
C22         C  0.27636868  0.30818723  0.60052746     0.85660
O23         O  0.29653508  0.32330991  0.64473582    -0.64960
Ni24       Ni  0.27376423  0.41151731  0.79164467     1.27450
Ni25       Ni  0.29344501  0.43260197  0.65106167     1.26060
H26         H  0.34024542  0.40312651  0.62971634     0.40200
O27         O  0.16178583  0.21018568  0.13083632    -0.79760
O28         O  0.01217997  0.20547486  0.99055211    -0.64440
O29         O  0.09772756  0.17989957  0.04743186    -1.11050
C30         C  0.17661308  0.26497809  0.90688046     1.07130
O31         O  0.02973635  0.20420526  0.89639072    -0.77650
O32         O  0.09050051  0.17707948  0.88154548    -0.65230
Ni33       Ni  0.10407957  0.17777983  0.13134786     1.34870
C34         C  0.11894673  0.16796081  0.89971390     0.85870
O35         O  0.01273534  0.15599591  0.06812673    -0.78190
O36         O  0.04715490  0.14594367  0.14280628    -0.88470
C37         C  0.50710410  0.21043371  0.94203306     0.85440
O38         O  0.09209230  0.21970101  0.15352156    -0.66670
O39         O  0.14625071  0.24805042  0.87472694    -0.85960
C40         C  0.07543458  0.23840419  0.12725607     0.86270
C41         C  0.01400757  0.14114428  0.11680155     1.07840
H42         H  0.09652005  0.25184885  0.98510556     0.39640
O43         O  0.09416910  0.22736676  0.97314418    -1.08620
O44         O  0.14058365  0.18373024  0.94341721    -0.65270
Ni45       Ni  0.13843168  0.21860360  0.00385242     1.26350
O46         O  0.05977268  0.22992556  0.07716806    -0.65500
O47         O  0.17704584  0.25860042  0.96117618    -0.77790
C48         C  0.18991488  0.21934184  0.09110347     0.85660
O49         O  0.18217239  0.21070007  0.03795178    -0.64960
Ni50       Ni  0.08830749  0.22486910  0.88987522     1.27450
Ni51       Ni  0.05343078  0.19154805  0.02020940     1.26060
H52         H  0.09530620  0.15629748  0.03100660     0.40200
O53         O  0.19567188  0.18480248  0.54060601    -0.79760
O54         O  0.19582227  0.04505097  0.67531778    -0.64440
O55         O  0.16955712  0.12398878  0.62004855    -1.11050
C56         C  0.25752254  0.19627731  0.75939594     1.07130
O57         O  0.22179205  0.06530922  0.76339880    -0.77650
O58         O  0.17127659  0.10675804  0.78181272    -0.65230
Ni59       Ni  0.17072157  0.13122732  0.53634183     1.34870
C60         C  0.15677582  0.13095059  0.76894356     0.85870
O61         O  0.13923493  0.04837263  0.60537711    -0.78190
O62         O  0.14610406  0.07849812  0.52049863    -0.88470
C63         C  0.21273795  0.04169903  0.72183531     0.85440
O64         O  0.22396876  0.13106130  0.52382865    -0.66670
O65         O  0.24007536  0.16753910  0.79004298    -0.85960
C66         C  0.23733671  0.10740431  0.54159615     0.86270
C67         C  0.13328877  0.04888089  0.55074599     1.07840
H68         H  0.25203513  0.12408209  0.67011155     0.39640
O69         O  0.22579923  0.12120432  0.68762892    -1.08620
O70         O  0.17195629  0.15443163  0.72763842    -0.65270
Ni71       Ni  0.21121234  0.16026038  0.66285802     1.26350
O72         O  0.22058978  0.08547955  0.58369501    -0.65500
O73         O  0.25408263  0.19616453  0.70439080    -0.77790
C74         C  0.20311251  0.20830475  0.58225208     0.85660
O75         O  0.19698749  0.19874299  0.63553910    -0.64960
Ni76       Ni  0.22825807  0.11635495  0.77120508     1.27450
Ni77       Ni  0.18235352  0.08403494  0.64708121     1.26060
H78         H  0.14288077  0.12146319  0.63551864     0.40200
O79         O  0.44984460  0.19259896  0.44470076    -0.79760
O80         O  0.31625793  0.04497728  0.34127497    -0.64440
O81         O  0.41317835  0.12482769  0.38157777    -1.11050
C82         C  0.38517619  0.18589574  0.22443156     1.07130
O83         O  0.31535124  0.05305796  0.24413961    -0.77650
O84         O  0.39835259  0.09586691  0.21972837    -0.65230
Ni85       Ni  0.41797353  0.14100492  0.46246184     1.34870
C86         C  0.43309581  0.11928255  0.23422588     0.85870
O87         O  0.37413677  0.05240881  0.41717982    -0.78190
O88         O  0.38867987  0.09153350  0.49307017    -0.88470
C89         C  0.30086128  0.03502973  0.29136708     0.85440
O90         O  0.36909871  0.15041019  0.45977649    -0.66670
O91         O  0.37617141  0.15490207  0.19822087    -0.85960
C92         C  0.33440495  0.12587915  0.44963056     0.86270
C93         C  0.37714349  0.05889110  0.47206343     1.07840
H94         H  0.33192398  0.12310378  0.32242246     0.39640
O95         O  0.35516369  0.11747579  0.30928142    -1.08620
O96         O  0.43718557  0.14571423  0.26996543    -0.65270
Ni97       Ni  0.40333363  0.15743880  0.32868447     1.26350
O98         O  0.32978237  0.09658614  0.42037242    -0.65500
O99         O  0.39155026  0.18974119  0.27872515    -0.77790
C100        C  0.46341930  0.21023034  0.39718072     0.85660
O101        O  0.45150579  0.19686981  0.34737882    -0.64960
Ni102      Ni  0.34841647  0.10445840  0.22691228     1.27450
Ni103      Ni  0.36437672  0.08437311  0.36260259     1.26060
H104        H  0.43681570  0.11953293  0.36941348     0.40200
O105        O  0.04135054  0.33557036  0.46519873    -0.79760
O106        O  0.17448468  0.46127893  0.32257228    -0.64440
O107        O  0.07221604  0.39601266  0.38321823    -1.11050
C108        C  0.08829049  0.31521070  0.23926543     1.07130
O109        O  0.16247433  0.44912062  0.22779399    -0.77650
O110        O  0.08030752  0.40345772  0.21305177    -0.65230
Ni111      Ni  0.06383784  0.38937484  0.46757988     1.34870
C112        C  0.04534734  0.38321719  0.23424485     0.85870
O113        O  0.12195229  0.46992907  0.40144848    -0.78190
O114        O  0.08411041  0.44209688  0.48069680    -0.88470
C115        C  0.18562042  0.46670395  0.26906151     0.85440
O116        O  0.11578323  0.38804001  0.48491699    -0.66670
O117        O  0.10284621  0.34402060  0.20738392    -0.85960
C118        C  0.14996988  0.40083419  0.45742923     0.86270
C119        C  0.10630467  0.47088052  0.45223378     1.07840
H120        H  0.14635669  0.38251487  0.31805640     0.39640
O121        O  0.12456780  0.38986584  0.30626935    -1.08620
O122        O  0.04061839  0.36331034  0.27958810    -0.65270
Ni123      Ni  0.07499092  0.35567352  0.33795747     1.26350
O124        O  0.15551125  0.41751371  0.40890504    -0.65500
O125        O  0.07985156  0.31600149  0.29367609    -0.77790
C126        C  0.02347255  0.31275679  0.42498068     0.85660
O127        O  0.02625550  0.32234234  0.37189214    -0.64960
Ni128      Ni  0.13049140  0.39631779  0.22255072     1.27450
Ni129      Ni  0.12342628  0.42994429  0.35355900     1.26060
H130        H  0.05088600  0.40320833  0.36901046     0.40200
O131        O  0.31897435  0.29420778  0.10923641    -0.79760
O132        O  0.47206165  0.29402864  0.97965710    -0.64440
O133        O  0.39121485  0.32838826  0.03730233    -1.11050
C134        C  0.31744504  0.25941120  0.87833724     1.07130
O135        O  0.46514829  0.30811077  0.88870445    -0.77650
O136        O  0.40979045  0.34015476  0.86660627    -0.65230
Ni137      Ni  0.37679985  0.32490406  0.11985209     1.34870
C138        C  0.38450440  0.35311928  0.88882663     0.85870
O139        O  0.47128178  0.34080940  0.06666959    -0.78190
O140        O  0.43324459  0.35433097  0.13799106    -0.88470
C141        C  0.47796013  0.29102355  0.92507359     0.85440
O142        O  0.38500030  0.28099486  0.13801723    -0.66670
O143        O  0.35187136  0.27139736  0.85060041    -0.85960
C144        C  0.39917864  0.26041624  0.10893121     0.86270
C145        C  0.46765507  0.35646254  0.11495299     1.07840
H146        H  0.38605530  0.25817960  0.96194483     0.39640
O147        O  0.39372382  0.28415057  0.95440026    -1.08620
O148        O  0.36103877  0.33872088  0.93275112    -0.65270
Ni149      Ni  0.35138117  0.29787730  0.98492250     1.26350
O150        O  0.41616749  0.26885686  0.05855264    -0.65500
O151        O  0.31264557  0.26580774  0.93249448    -0.77790
C152        C  0.29539177  0.29488893  0.06844237     0.85660
O153        O  0.30985162  0.31076933  0.02052207    -0.64960
Ni154      Ni  0.40810556  0.29082283  0.87247469     1.27450
Ni155      Ni  0.43299085  0.31218910  0.01012106     1.26060
H156        H  0.39908166  0.35390374  0.02626572     0.40200
C157        C  0.00792208  0.37921040  0.20293346    -0.15300
C158        C  0.50608554  0.37642958  0.14596365    -0.30470
H159        H  0.97961559  0.37204660  0.22868446     0.13730
H160        H  0.53446941  0.38217887  0.12085207     0.14300
C161        C  0.38827809  0.21941790  0.19303271    -0.15300
C162        C  0.39588592  0.22502612  0.13514366    -0.30470
H163        H  0.38587054  0.24157619  0.22035543     0.13730
H164        H  0.40102412  0.20420580  0.10755913     0.14300
C165        C  0.49358981  0.24815154  0.39664231    -0.15300
C166        C  0.99962147  0.27357114  0.43888283    -0.30470
H167        H  0.50908586  0.25720702  0.35434319     0.13730
H168        H  0.98536815  0.26573557  0.48212721     0.14300
C169        C  0.22669265  0.49492543  0.25596018    -0.15300
C170        C  0.26354498  0.00130182  0.29099912    -0.30470
H171        H  0.24094435  0.00751489  0.20836998     0.13730
H172        H  0.25671133  0.98512338  0.33110991     0.14300
C173        C  0.11323653  0.01295331  0.52105358    -0.15300
C174        C  0.11630992  0.50763626  0.47973370    -0.30470
H175        H  0.09729690  0.98912402  0.54853836     0.13730
H176        H  0.13345509  0.53149904  0.45292800     0.14300
C177        C  0.27306378  0.10400592  0.51149307    -0.15300
C178        C  0.29837713  0.13033297  0.47622328    -0.30470
H179        H  0.27950404  0.07951612  0.51983319     0.13730
H180        H  0.29456474  0.15635005  0.47113576     0.14300
C181        C  0.28381207  0.23020573  0.78837953    -0.15300
C182        C  0.28199772  0.23446216  0.84688264    -0.30470
H183        H  0.30818170  0.24997279  0.76201623     0.13730
H184        H  0.25642910  0.21578490  0.87280310     0.14300
C185        C  0.47124194  0.11882827  0.20669233    -0.15300
C186        C  0.47552921  0.11700658  0.14804481    -0.30470
H187        H  0.49852266  0.13077772  0.23249166     0.13730
H188        H  0.94698067  0.11307196  0.12016517     0.14300
C189        C  0.25102671  0.27351593  0.07133865    -0.15300
C190        C  0.23215188  0.24368954  0.10521749    -0.30470
H191        H  0.23371066  0.27965110  0.03737760     0.13730
H192        H  0.24780150  0.23669625  0.14050477     0.14300
C193        C  0.49510177  0.26372903  0.90577616    -0.15300
C194        C  0.48049283  0.23052644  0.93216261    -0.30470
H195        H  0.52263222  0.27233526  0.87807783     0.13730
H196        H  0.95157442  0.22001164  0.94951461     0.14300
C197        C  0.07574302  0.27268510  0.15494248    -0.15300
C198        C  0.08176818  0.27912324  0.21257778    -0.30470
H199        H  0.07227804  0.29352429  0.12711773     0.13730
H200        H  0.08249601  0.25741113  0.24105278     0.14300
C201        C  0.12524566  0.13657260  0.80744081    -0.15300
C202        C  0.13098129  0.14092248  0.86572574    -0.30470
H203        H  0.10565336  0.14842383  0.78716036     0.13730
H204        H  0.15356122  0.13220564  0.88502304     0.14300
C205        C  0.35519225  0.49329619  0.49881693    -0.15300
C206        C  0.36382903  0.02785637  0.51414057    -0.30470
H207        H  0.35958897  0.48733969  0.45287428     0.13730
H208        H  0.36033953  0.03427958  0.56012890     0.14300
C209        C  0.25791401  0.00992227  0.75124454    -0.15300
C210        C  0.22440123  0.00953033  0.72424748    -0.30470
H211        H  0.27675335  0.52681803  0.78717400     0.13730
H212        H  0.20924609  0.98715902  0.69382845     0.14300
C213        C  0.25547014  0.26790513  0.60230338    -0.15300
C214        C  0.22377569  0.24792888  0.56923182    -0.30470
H215        H  0.26464058  0.25419563  0.63702731     0.13730
H216        H  0.21447287  0.26012063  0.53269793     0.14300
C217        C  0.37744882  0.38494240  0.80059642    -0.15300
C218        C  0.37782537  0.38376073  0.85966716    -0.30470
H219        H  0.39227549  0.36958168  0.77507467     0.13730
H220        H  0.36042501  0.39681024  0.88517018     0.14300
C221        C  0.21709760  0.29568836  0.82139588    -0.15300
C222        C  0.21183964  0.29439041  0.87986927    -0.30470
H223        H  0.19955677  0.27197707  0.79484318     0.13730
H224        H  0.23071045  0.31695899  0.90732314     0.14300
C225        C  0.19224420  0.39778222  0.53935320    -0.15300
C226        C  0.18583359  0.39657095  0.48159280    -0.30470
H227        H  0.17007205  0.40141236  0.57043618     0.13730
H228        H  0.20982882  0.39648191  0.45058250     0.14300
O229        O  0.26953773  0.82753286  0.56771156    -0.79760
O230        O  0.27207527  0.97112477  0.68133235    -0.64440
O231        O  0.30917467  0.89710761  0.62634961    -1.11050
C232        C  0.23713627  0.83502718  0.79511266     1.07130
O233        O  0.29142777  0.96872930  0.77216271    -0.77650
O234        O  0.32342553  0.91660420  0.80244799    -0.65230
Ni235      Ni  0.30046272  0.87923735  0.54682594     1.34870
C236        C  0.33992771  0.89564137  0.77927648     0.85870
O237        O  0.31970664  0.96733001  0.58800376    -0.78190
O238        O  0.32968206  0.92901648  0.51917260    -0.88470
C239        C  0.27481460  0.98188428  0.73444762     0.85440
O240        O  0.24991282  0.88410804  0.53331911    -0.66670
O241        O  0.24596809  0.86663727  0.81946356    -0.85960
C242        C  0.22939468  0.89970916  0.56153154     0.86270
C243        C  0.33347827  0.96115397  0.53785866     1.07840
H244        H  0.23380591  0.89315860  0.70641422     0.39640
O245        O  0.26282041  0.90149218  0.71238054    -1.08620
O246        O  0.32658255  0.87614004  0.73361522    -0.65270
Ni247      Ni  0.27941939  0.86344290  0.68533984     1.26350
O248        O  0.24139417  0.91803071  0.60833697    -0.65500
O249        O  0.24747780  0.82997829  0.74290605    -0.77790
C250        C  0.27511848  0.80940398  0.61029716     0.85660
O251        O  0.29506612  0.82599359  0.65382309    -0.64960
Ni252      Ni  0.26988765  0.91701296  0.79274870     1.27450
Ni253      Ni  0.29109023  0.93502101  0.65135009     1.26060
H254        H  0.33804946  0.90524248  0.63332832     0.40200
O255        O  0.15405736  0.69816494  0.11335391    -0.79760
O256        O  0.00128608  0.70684416  0.99386678    -0.64440
O257        O  0.08736751  0.67576594  0.03308619    -1.11050
C258        C  0.16608837  0.77319762  0.90806663     1.07130
O259        O  0.01904480  0.71374715  0.90008060    -0.77650
O260        O  0.08167198  0.69311691  0.86324628    -0.65230
Ni261      Ni  0.09548174  0.66958322  0.11584631     1.34870
C262        C  0.10839505  0.68011553  0.87534191     0.85870
O263        O  0.00244413  0.65100489  0.05717675    -0.78190
O264        O  0.03786701  0.64127078  0.13064450    -0.88470
C265        C  0.49867961  0.71853521  0.94425816     0.85440
O266        O  0.08970610  0.71340014  0.14409966    -0.66670
O267        O  0.13418578  0.76377169  0.87754228    -0.85960
C268        C  0.07043899  0.73205876  0.12461998     0.86270
C269        C  0.00431372  0.63650608  0.10594547     1.07840
H270        H  0.08756405  0.75252917  0.99203227     0.39640
O271        O  0.08399717  0.72945275  0.97260156    -1.08620
O272        O  0.12796127  0.68751269  0.92332219    -0.65270
Ni273      Ni  0.12815159  0.71692165  0.99374502     1.26350
O274        O  0.04975569  0.72363372  0.07855968    -0.65500
O275        O  0.16737167  0.75950159  0.95754395    -0.77790
C276        C  0.18111291  0.70994413  0.07255512     0.85660
O277        O  0.17191112  0.70515361  0.01910883    -0.64960
Ni278      Ni  0.07695410  0.73742743  0.89182400     1.27450
Ni279      Ni  0.04283968  0.68995674  0.01410996     1.26060
H280        H  0.08436060  0.65316499  0.01244461     0.40200
O281        O  0.19410562  0.68415782  0.55576835    -0.79760
O282        O  0.19860781  0.54329094  0.68290430    -0.64440
O283        O  0.17137154  0.62343657  0.63545341    -1.11050
C284        C  0.26982326  0.69503558  0.76288690     1.07130
O285        O  0.22883921  0.56327698  0.76854140    -0.77650
O286        O  0.18325661  0.60741011  0.79598579    -0.65230
Ni287      Ni  0.16920912  0.63054142  0.55208080     1.34870
C288        C  0.16920358  0.63249526  0.78807261     0.85870
O289        O  0.13870683  0.54778135  0.62107239    -0.78190
O290        O  0.14393191  0.57776178  0.53657415    -0.88470
C291        C  0.21715924  0.53951865  0.72745645     0.85440
O292        O  0.22222709  0.63051023  0.53470531    -0.66670
O293        O  0.25434855  0.66661148  0.79483058    -0.85960
C294        C  0.23530149  0.60588986  0.54873235     0.86270
C295        C  0.13135644  0.54818778  0.56694507     1.07840
H296        H  0.25589509  0.62184191  0.67331928     0.39640
O297        O  0.23092846  0.61950226  0.69437628    -1.08620
O298        O  0.18149907  0.65524914  0.74494144    -0.65270
Ni299      Ni  0.21606830  0.65924866  0.67382091     1.26350
O300        O  0.21916184  0.58325511  0.59025098    -0.65500
O301        O  0.26251364  0.69467038  0.70906746    -0.77790
C302        C  0.20429533  0.70786535  0.59716748     0.85660
O303        O  0.20167077  0.69851329  0.65047515    -0.64960
Ni304      Ni  0.23874470  0.61495017  0.77653350     1.27450
Ni305      Ni  0.18467418  0.58285467  0.65842658     1.26060
H306        H  0.14574318  0.62162320  0.65412329     0.40200
O307        O  0.44726727  0.69344067  0.44011683    -0.79760
O308        O  0.31043863  0.54476655  0.34557897    -0.64440
O309        O  0.41006368  0.62337951  0.38104377    -1.11050
C310        C  0.37987438  0.68381809  0.22514312     1.07130
O311        O  0.30875675  0.55175242  0.24830170    -0.77650
O312        O  0.39032796  0.59360269  0.21653945    -0.65230
Ni313      Ni  0.41730297  0.64157235  0.46093266     1.34870
C314        C  0.42589200  0.61610509  0.22934480     0.85870
O315        O  0.37002040  0.55189237  0.41927981    -0.78190
O316        O  0.39012869  0.59222069  0.49367529    -0.88470
C317        C  0.29417060  0.53468479  0.29613205     0.85440
O318        O  0.36766360  0.65008957  0.46320577    -0.66670
O319        O  0.36804347  0.65260212  0.19941339    -0.85960
C320        C  0.33258529  0.62565247  0.45489130     0.86270
C321        C  0.37646953  0.55923672  0.47356476     1.07840
H322        H  0.32880834  0.62356020  0.32592137     0.39640
O323        O  0.35096156  0.61673292  0.31141717    -1.08620
O324        O  0.43202674  0.64178944  0.26722674    -0.65270
Ni325      Ni  0.40086692  0.65571206  0.32757945     1.26350
O326        O  0.32701777  0.59673383  0.42416489    -0.65500
O327        O  0.38958605  0.68822888  0.27818499    -0.77790
C328        C  0.46163948  0.70947815  0.39146283     0.85660
O329        O  0.45080243  0.69387620  0.34280099    -0.64960
Ni330      Ni  0.34111795  0.60276823  0.22954574     1.27450
Ni331      Ni  0.35994715  0.58357667  0.36476398     1.26060
H332        H  0.43295916  0.61708647  0.36836703     0.40200
O333        O  0.03992968  0.83611145  0.45240726    -0.79760
O334        O  0.18162237  0.95826098  0.31458431    -0.64440
O335        O  0.07583909  0.89558415  0.36950771    -1.11050
C336        C  0.09379978  0.81091839  0.23481923     1.07130
O337        O  0.17400889  0.94382354  0.21964099    -0.77650
O338        O  0.09307191  0.90103908  0.19994767    -0.65230
Ni339      Ni  0.06447896  0.88991143  0.45356676     1.34870
C340        C  0.05653429  0.88239471  0.21671156     0.85870
O341        O  0.12698631  0.96920299  0.38744551    -0.78190
O342        O  0.08643489  0.94275271  0.46529415    -0.88470
C343        C  0.19467835  0.96303694  0.26169215     0.85440
O344        O  0.11478611  0.88691648  0.47632426    -0.66670
O345        O  0.11138634  0.83915451  0.20253221    -0.85960
C346        C  0.15005297  0.89912811  0.45182637     0.86270
C347        C  0.11015355  0.97101596  0.43703317     1.07840
H348        H  0.15040434  0.87839879  0.31501268     0.39640
O349        O  0.13014868  0.88653636  0.29949863    -1.08620
O350        O  0.04762214  0.86246193  0.26299409    -0.65270
Ni351      Ni  0.07812926  0.85397080  0.32748546     1.26350
O352        O  0.15793016  0.91563435  0.40297119    -0.65500
O353        O  0.08285592  0.81277606  0.28783155    -0.77790
C354        C  0.02234706  0.81308841  0.41224349     0.85660
O355        O  0.02716082  0.82212708  0.35865502    -0.64960
Ni356      Ni  0.14059896  0.89138376  0.21625050     1.27450
Ni357      Ni  0.12887806  0.92803242  0.34291633     1.26060
H358        H  0.05571808  0.90339587  0.35268815     0.40200
O359        O  0.30633580  0.78729180  0.10818224    -0.79760
O360        O  0.47531885  0.80733989  0.00063201    -0.64440
O361        O  0.38360205  0.82950741  0.05207838    -1.11050
C362        C  0.32599352  0.76268048  0.87950488     1.07130
O363        O  0.46932392  0.82587557  0.91274281    -0.77650
O364        O  0.40803502  0.84663829  0.87475071    -0.65230
Ni365      Ni  0.36169087  0.81848015  0.13106404     1.34870
C366        C  0.38227221  0.85861194  0.89828282     0.85870
O367        O  0.46211349  0.84453822  0.09471246    -0.78190
O368        O  0.41491646  0.84651321  0.16250280    -0.88470
C369        C  0.48265697  0.80745663  0.94582175     0.85440
O370        O  0.37071077  0.77449961  0.14156826    -0.66670
O371        O  0.36203675  0.77428092  0.85659346    -0.85960
C372        C  0.39160638  0.75892303  0.11437244     0.86270
C373        C  0.45184802  0.85258200  0.14598917     1.07840
H374        H  0.38986977  0.76621395  0.97128683     0.39640
O375        O  0.39641564  0.79222588  0.96573373    -1.08620
O376        O  0.36067308  0.84439592  0.94390424    -0.65270
Ni377      Ni  0.34996033  0.80116315  0.99095946     1.26350
O378        O  0.41438022  0.77273238  0.06989109    -0.65500
O379        O  0.31716585  0.77087240  0.93105309    -0.77790
C380        C  0.28613725  0.78905130  0.06386387     0.85660
O381        O  0.30376234  0.80904104  0.02082336    -0.64960
Ni382      Ni  0.41548921  0.80111271  0.88580600     1.27450
Ni383      Ni  0.43037650  0.81890653  0.02900279     1.26060
H384        H  0.38990495  0.85540684  0.04544911     0.40200
C385        C  0.02380044  0.88098222  0.17637903    -0.15300
C386        C  0.48380082  0.86647173  0.19100246    -0.30470
H387        H  0.03292843  0.88827130  0.13079733     0.13730
H388        H  0.47419273  0.86059636  0.23677447     0.14300
C389        C  0.38157287  0.71689957  0.19490398    -0.15300
C390        C  0.38989726  0.72350854  0.13748365    -0.30470
H391        H  0.37791781  0.73821318  0.22308430     0.13730
H392        H  0.39732593  0.70419085  0.10917782     0.14300
C393        C  0.49113450  0.74783400  0.38774791    -0.15300
C394        C  0.99679432  0.77428685  0.42745118    -0.30470
H395        H  0.50665342  0.75563694  0.34515288     0.13730
H396        H  0.98285867  0.76752246  0.47109243     0.14300
C397        C  0.23508824  0.99253738  0.24951605    -0.15300
C398        C  0.25579701  0.50204370  0.29644775    -0.30470
H399        H  0.23258658  0.51036950  0.21527145     0.13730
H400        H  0.24892816  0.48561342  0.33628177     0.14300
C401        C  0.11052341  0.51225468  0.53760255    -0.15300
C402        C  0.12042693  0.00805598  0.46368685    -0.30470
H403        H  0.09558716  0.48829249  0.56524268     0.13730
H404        H  0.13862141  0.03170100  0.43713576     0.14300
C405        C  0.26974481  0.60216460  0.51490044    -0.15300
C406        C  0.29721566  0.63015494  0.48454513    -0.30470
H407        H  0.27382064  0.57607900  0.51730249     0.13730
H408        H  0.29577818  0.65736150  0.48627953     0.14300
C409        C  0.29726261  0.72919041  0.78954933    -0.15300
C410        C  0.29284902  0.73597706  0.84660194    -0.30470
H411        H  0.32295026  0.74740455  0.76334333     0.13730
H412        H  0.26567219  0.71876820  0.87130561     0.14300
C413        C  0.46257444  0.61538265  0.19728073    -0.15300
C414        C  0.46488625  0.61569020  0.13815439    -0.30470
H415        H  0.49074509  0.62523319  0.22138662     0.13730
H416        H  0.93714573  0.60981006  0.11321600     0.14300
C417        C  0.24297052  0.76473194  0.05727219    -0.15300
C418        C  0.22346467  0.73344680  0.08765372    -0.30470
H419        H  0.22752696  0.77137504  0.02144885     0.13730
H420        H  0.23753449  0.72652458  0.12492582     0.14300
C421        C  0.49620850  0.77866718  0.92177789    -0.15300
C422        C  0.47710845  0.74384091  0.94124364    -0.30470
H423        H  0.52425685  0.78658039  0.89530410     0.13730
H424        H  0.95032326  0.73817089  0.96910930     0.14300
C425        C  0.07368184  0.76655970  0.15426363    -0.15300
C426        C  0.08583619  0.77426511  0.20960555    -0.30470
H427        H  0.06706886  0.78686465  0.12903301     0.13730
H428        H  0.08957539  0.75333705  0.23688662     0.14300
C429        C  0.14299802  0.63918521  0.83578315    -0.15300
C430        C  0.12037446  0.65950560  0.82754585    -0.30470
H431        H  0.14699322  0.63161393  0.88016955     0.13730
H432        H  0.11495427  0.66544530  0.78283975     0.14300
C433        C  0.35348668  0.99247204  0.49730350    -0.15300
C434        C  0.36484283  0.52850884  0.51612043    -0.30470
H435        H  0.35805304  0.98609248  0.45162601     0.13730
H436        H  0.36187599  0.53480013  0.56229834     0.14300
C437        C  0.26068580  0.50589651  0.75520908    -0.15300
C438        C  0.22779844  0.50677287  0.72802599    -0.30470
H439        H  0.27387223  0.03161785  0.78214639     0.13730
H440        H  0.21232548  0.48506562  0.69672155     0.14300
C441        C  0.25517350  0.76902846  0.61471333    -0.15300
C442        C  0.22340291  0.74755112  0.58297669    -0.30470
H443        H  0.26537075  0.75659470  0.65012223     0.13730
H444        H  0.21313579  0.75859500  0.54600907     0.14300
C445        C  0.37334372  0.88954032  0.80953110    -0.15300
C446        C  0.37281890  0.88780454  0.86871415    -0.30470
H447        H  0.38964158  0.87536667  0.78425714     0.13730
H448        H  0.35396592  0.89953130  0.89386457     0.14300
C449        C  0.21069779  0.80216768  0.82648160    -0.15300
C450        C  0.20288465  0.80191947  0.88421634    -0.30470
H451        H  0.19368918  0.77820524  0.79998089     0.13730
H452        H  0.22098058  0.82436158  0.91250576     0.14300
C453        C  0.19036636  0.89782666  0.53772111    -0.15300
C454        C  0.18447148  0.89419021  0.47970059    -0.30470
H455        H  0.16846810  0.90363905  0.56664740     0.13730
H456        H  0.20842479  0.89201854  0.45054273     0.14300
O457        O  0.77200027  0.32773636  0.56148772    -0.79760
O458        O  0.77580380  0.46901377  0.68367570    -0.64440
O459        O  0.81194715  0.39544839  0.62427557    -1.11050
C460        C  0.74130838  0.33106987  0.79254153     1.07130
O461        O  0.79524708  0.46523584  0.77400134    -0.77650
O462        O  0.82868783  0.41362955  0.79763378    -0.65230
Ni463      Ni  0.80356465  0.37956112  0.54371697     1.34870
C464        C  0.84401730  0.39202115  0.77374555     0.85870
O465        O  0.82289692  0.46668279  0.58916023    -0.78190
O466        O  0.83342310  0.42965126  0.51871885    -0.88470
C467        C  0.77866196  0.47894546  0.73715352     0.85440
O468        O  0.75333936  0.38533153  0.53139996    -0.66670
O469        O  0.75183755  0.36246836  0.81814461    -0.85960
C470        C  0.73261277  0.39978307  0.56180116     0.86270
C471        C  0.83684061  0.46139110  0.53863037     1.07840
H472        H  0.73716311  0.39119052  0.70673329     0.39640
O473        O  0.76622064  0.39896344  0.71183493    -1.08620
O474        O  0.82896110  0.37187441  0.72935420    -0.65270
Ni475      Ni  0.78162686  0.36080012  0.68201286     1.26350
O476        O  0.74462840  0.41691436  0.60951689    -0.65500
O477        O  0.74942967  0.32661033  0.73895428    -0.77790
C478        C  0.77660515  0.30828111  0.60280631     0.85660
O479        O  0.79605420  0.32330057  0.64767605    -0.64960
Ni480      Ni  0.77460926  0.41326264  0.79257778     1.27450
Ni481      Ni  0.79449352  0.43329405  0.65166385     1.26060
H482        H  0.84077171  0.40314705  0.63133566     0.40200
O483        O  0.66317936  0.20865509  0.13122153    -0.79760
O484        O  0.51021083  0.20195926  0.99448759    -0.64440
O485        O  0.59851665  0.17905184  0.04846639    -1.11050
C486        C  0.67494852  0.26734470  0.91001577     1.07130
O487        O  0.52842530  0.20431789  0.90032556    -0.77650
O488        O  0.59043594  0.17896317  0.88208781    -0.65230
Ni489      Ni  0.60534543  0.17682092  0.13239030     1.34870
C490        C  0.61914623  0.16998417  0.89970502     0.85870
O491        O  0.51332048  0.15148517  0.06823117    -0.78190
O492        O  0.54837745  0.14543939  0.14516716    -0.88470
C493        C  0.00828303  0.21124624  0.93703500     0.85440
O494        O  0.59418949  0.21921163  0.15420818    -0.66670
O495        O  0.64455624  0.25053602  0.87793172    -0.85960
C496        C  0.57461606  0.23599227  0.12965510     0.86270
C497        C  0.51509520  0.13840749  0.11823096     1.07840
H498        H  0.59407359  0.25091508  0.99040326     0.39640
O499        O  0.59271188  0.22699912  0.97678710    -1.08620
O500        O  0.64073985  0.18551806  0.94356228    -0.65270
Ni501      Ni  0.63802387  0.21914642  0.00568686     1.26350
O502        O  0.55690931  0.22591969  0.08124196    -0.65500
O503        O  0.67560921  0.26042005  0.96405383    -0.77790
C504        C  0.69086998  0.21907386  0.09096892     0.85660
O505        O  0.68277428  0.21188702  0.03755505    -0.64960
Ni506      Ni  0.58683765  0.22611941  0.89340527     1.27450
Ni507      Ni  0.55288826  0.18914907  0.02225303     1.26060
H508        H  0.59715103  0.15586733  0.03147547     0.40200
O509        O  0.69699440  0.18486901  0.53988821    -0.79760
O510        O  0.69538957  0.04505830  0.67620106    -0.64440
O511        O  0.66979400  0.12407977  0.61968660    -1.11050
C512        C  0.75728966  0.19670235  0.75910193     1.07130
O513        O  0.72067982  0.06539085  0.76462317    -0.77650
O514        O  0.67081170  0.10772965  0.78225855    -0.65230
Ni515      Ni  0.67154124  0.13125932  0.53589776     1.34870
C516        C  0.65669980  0.13210729  0.76880975     0.85870
O517        O  0.63917183  0.04845799  0.60549424    -0.78190
O518        O  0.64654990  0.07848378  0.52036787    -0.88470
C519        C  0.71197521  0.04175205  0.72306506     0.85440
O520        O  0.72469376  0.13074395  0.52421963    -0.66670
O521        O  0.74010472  0.16804218  0.79004736    -0.85960
C522        C  0.73773893  0.10695907  0.54232690     0.86270
C523        C  0.63341052  0.04892116  0.55079208     1.07840
H524        H  0.75185546  0.12394738  0.67084170     0.39640
O525        O  0.72560129  0.12122954  0.68805551    -1.08620
O526        O  0.67200635  0.15509583  0.72693959    -0.65270
Ni527      Ni  0.71135315  0.16032534  0.66255719     1.26350
O528        O  0.72062542  0.08508581  0.58433855    -0.65500
O529        O  0.75414744  0.19626930  0.70403268    -0.77790
C530        C  0.70422112  0.20837077  0.58152454     0.85660
O531        O  0.69735648  0.19873668  0.63468214    -0.64960
Ni532      Ni  0.72769949  0.11665306  0.77178762     1.27450
Ni533      Ni  0.68223334  0.08406644  0.64734195     1.26060
H534        H  0.64308269  0.12170961  0.63482630     0.40200
O535        O  0.95183546  0.19275207  0.44482840    -0.79760
O536        O  0.81619769  0.04488429  0.34507644    -0.64440
O537        O  0.91392502  0.12488943  0.38247408    -1.11050
C538        C  0.88302768  0.18526702  0.22665231     1.07130
O539        O  0.81539684  0.05211950  0.24774329    -0.77650
O540        O  0.89733986  0.09612065  0.22027384    -0.65230
Ni541      Ni  0.92019711  0.14120997  0.46331528     1.34870
C542        C  0.93213084  0.11975478  0.23401414     0.85870
O543        O  0.87533377  0.05252297  0.41905406    -0.78190
O544        O  0.89132187  0.09184940  0.49462927    -0.88470
C545        C  0.80081285  0.03449159  0.29524355     0.85440
O546        O  0.87124654  0.15062512  0.46287175    -0.66670
O547        O  0.87317272  0.15409650  0.20079889    -0.85960
C548        C  0.83634356  0.12614020  0.45360115     0.86270
C549        C  0.87910094  0.05913379  0.47383168     1.07840
H550        H  0.83167136  0.12269754  0.32585629     0.39640
O551        O  0.85481486  0.11713765  0.31205495    -1.08620
O552        O  0.93642301  0.14589866  0.27038634    -0.65270
Ni553      Ni  0.90309928  0.15735523  0.33018990     1.26350
O554        O  0.83120286  0.09685543  0.42399706    -0.65500
O555        O  0.89040968  0.18942135  0.28068923    -0.77790
C556        C  0.96429364  0.21042876  0.39707201     0.85660
O557        O  0.95134346  0.19707752  0.34766271    -0.64960
Ni558      Ni  0.84693970  0.10369549  0.22993849     1.27450
Ni559      Ni  0.86480003  0.08431204  0.36500414     1.26060
H560        H  0.93743316  0.11956021  0.36926673     0.40200
O561        O  0.54142739  0.33499527  0.46620933    -0.79760
O562        O  0.67544800  0.45896047  0.32245138    -0.64440
O563        O  0.57270110  0.39527163  0.38389803    -1.11050
C564        C  0.58655888  0.31326451  0.24038442     1.07130
O565        O  0.66290927  0.44686472  0.22772150    -0.77650
O566        O  0.58002437  0.40247107  0.21402583    -0.65230
Ni567      Ni  0.56438041  0.38883624  0.46828317     1.34870
C568        C  0.54496115  0.38268008  0.23548785     0.85870
O569        O  0.62394334  0.46877909  0.40196178    -0.78190
O570        O  0.58515210  0.44161634  0.48089835    -0.88470
C571        C  0.68629851  0.46441775  0.26884413     0.85440
O572        O  0.61616864  0.38720161  0.48589055    -0.66670
O573        O  0.60095535  0.34191703  0.20807369    -0.85960
C574        C  0.65024561  0.39912270  0.45801274     0.86270
C575        C  0.60808775  0.47014557  0.45247637     1.07840
H576        H  0.64567098  0.38012347  0.31809728     0.39640
O577        O  0.62417258  0.38794724  0.30658259    -1.08620
O578        O  0.54011091  0.36262623  0.28067228    -0.65270
Ni579      Ni  0.57434294  0.35450954  0.33878372     1.26350
O580        O  0.65588778  0.41520635  0.40894448    -0.65500
O581        O  0.57823784  0.31435709  0.29477766    -0.77790
C582        C  0.52289418  0.31232982  0.42617685     0.85660
O583        O  0.52535325  0.32201899  0.37320080    -0.64960
Ni584      Ni  0.62969455  0.39421241  0.22284675     1.27450
Ni585      Ni  0.62421304  0.42839707  0.35390916     1.26060
H586        H  0.55170039  0.40293299  0.36975310     0.40200
O587        O  0.81929354  0.29421461  0.10987854    -0.79760
O588        O  0.96877476  0.28988945  0.97849100    -0.64440
O589        O  0.89096314  0.32741624  0.03728356    -1.11050
C590        C  0.81590775  0.26063113  0.87784645     1.07130
O591        O  0.96359770  0.30714653  0.88860287    -0.77650
O592        O  0.90945435  0.34054090  0.86771752    -0.65230
Ni593      Ni  0.87712465  0.32469002  0.11979075     1.34870
C594        C  0.88448973  0.35378032  0.89011242     0.85870
O595        O  0.97008312  0.33654459  0.06717139    -0.78190
O596        O  0.93375334  0.35388167  0.13652687    -0.88470
C597        C  0.97601128  0.28909417  0.92379471     0.85440
O598        O  0.88519196  0.28087105  0.13909457    -0.66670
O599        O  0.85040162  0.27247299  0.85020677    -0.85960
C600        C  0.89676355  0.25874758  0.10940398     0.86270
C601        C  0.96751890  0.35386911  0.11420907     1.07840
H602        H  0.88318536  0.25703318  0.96020962     0.39640
O603        O  0.89170604  0.28320084  0.95364824    -1.08620
O604        O  0.86076830  0.33931999  0.93373807    -0.65270
Ni605      Ni  0.85036813  0.29793769  0.98498479     1.26350
O606        O  0.91204621  0.26576215  0.05778142    -0.65500
O607        O  0.81107065  0.26687488  0.93212280    -0.77790
C608        C  0.79554698  0.29536989  0.06965781     0.85660
O609        O  0.80977392  0.31158102  0.02187781    -0.64960
Ni610      Ni  0.90660521  0.29084052  0.87216117     1.27450
Ni611      Ni  0.93122713  0.30948750  0.00994663     1.26060
H612        H  0.89985946  0.35299560  0.02611340     0.40200
C613        C  0.50743654  0.37935103  0.20483955    -0.15300
C614        C  0.00630929  0.37344773  0.14452675    -0.30470
H615        H  0.47896020  0.37027276  0.23050012     0.13730
H616        H  0.03443250  0.37710867  0.11993989     0.14300
C617        C  0.88627905  0.21868086  0.19478065    -0.15300
C618        C  0.89248164  0.22331755  0.13646933    -0.30470
H619        H  0.88544479  0.24152684  0.22184741     0.13730
H620        H  0.89589987  0.20163774  0.10906743     0.14300
C621        C  0.99437400  0.24840219  0.39584939    -0.15300
C622        C  0.49880676  0.27317309  0.43991080    -0.30470
H623        H  0.00953783  0.25735285  0.35331624     0.13730
H624        H  0.48438256  0.26527397  0.48304003     0.14300
C625        C  0.72727773  0.49283306  0.25548966    -0.15300
C626        C  0.76345804  0.00078241  0.29501900    -0.30470
H627        H  0.74253376  0.00558800  0.21045379     0.13730
H628        H  0.75594853  0.98525847  0.33579726     0.14300
C629        C  0.61317953  0.01296724  0.52126437    -0.15300
C630        C  0.61860185  0.50707176  0.47967971    -0.30470
H631        H  0.59679960  0.98927341  0.54880296     0.13730
H632        H  0.63636230  0.53077262  0.45293600     0.14300
C633        C  0.77346056  0.10337028  0.51253857    -0.15300
C634        C  0.80063308  0.13081723  0.48103663    -0.30470
H635        H  0.77832602  0.07783422  0.51809401     0.13730
H636        H  0.79831063  0.15764772  0.47943331     0.14300
C637        C  0.78299470  0.23097974  0.78778664    -0.15300
C638        C  0.78051106  0.23580467  0.84609284    -0.30470
H639        H  0.80763411  0.25052210  0.76151938     0.13730
H640        H  0.75468076  0.21732806  0.87181074     0.14300
C641        C  0.97004413  0.11977441  0.20501070    -0.15300
C642        C  0.97415251  0.12003074  0.14615998    -0.30470
H643        H  0.99740915  0.13033974  0.23087666     0.13730
H644        H  0.44837235  0.10840863  0.12171819     0.14300
C645        C  0.75128727  0.27397065  0.07293472    -0.15300
C646        C  0.73307310  0.24325699  0.10509264    -0.30470
H647        H  0.73354403  0.28079715  0.04033874     0.13730
H648        H  0.74924451  0.23548126  0.13882799     0.14300
C649        C  0.99502646  0.26367434  0.90243683    -0.15300
C650        C  0.98020165  0.22920013  0.92408070    -0.30470
H651        H  0.02446196  0.27467025  0.87933517     0.13730
H652        H  0.45365256  0.22369480  0.96123477     0.14300
C653        C  0.57383607  0.26999486  0.15701771    -0.15300
C654        C  0.58040589  0.27705016  0.21437739    -0.30470
H655        H  0.56914405  0.29018405  0.12907655     0.13730
H656        H  0.58221924  0.25585571  0.24304612     0.14300
C657        C  0.62557377  0.13860315  0.80716344    -0.15300
C658        C  0.63136152  0.14313309  0.86540927    -0.30470
H659        H  0.60620214  0.15062841  0.78671816     0.13730
H660        H  0.65381370  0.13428606  0.88479204     0.14300
C661        C  0.85620532  0.49307958  0.49858322    -0.15300
C662        C  0.86574064  0.02816219  0.51604221    -0.30470
H663        H  0.86049033  0.48687421  0.45272254     0.13730
H664        H  0.86287912  0.03468592  0.56214803     0.14300
C665        C  0.75747874  0.01029344  0.75247000    -0.15300
C666        C  0.72370214  0.00960710  0.72587091    -0.30470
H667        H  0.77851513  0.52819895  0.78667954     0.13730
H668        H  0.70848953  0.98706235  0.69576905     0.14300
C669        C  0.75579553  0.26799585  0.60400752    -0.15300
C670        C  0.72531991  0.24801266  0.56892460    -0.30470
H671        H  0.76391413  0.25427778  0.63976090     0.13730
H672        H  0.71721281  0.26025041  0.53133378     0.14300
C673        C  0.87787574  0.38582555  0.80216827    -0.15300
C674        C  0.87839934  0.38475363  0.86122360    -0.30470
H675        H  0.89255548  0.37035016  0.77662053     0.13730
H676        H  0.86121787  0.39798713  0.88678894     0.14300
C677        C  0.71590604  0.29783118  0.82460122    -0.15300
C678        C  0.71004158  0.29699207  0.88303723    -0.30470
H679        H  0.69862940  0.27387502  0.79834257     0.13730
H680        H  0.72864091  0.31975049  0.91039308     0.14300
C681        C  0.69308130  0.39774604  0.54013077    -0.15300
C682        C  0.68589903  0.39465710  0.48251401    -0.30470
H683        H  0.67149115  0.40272280  0.57076617     0.13730
H684        H  0.70930461  0.39317481  0.45157865     0.14300
O685        O  0.76944154  0.82775349  0.56901970    -0.79760
O686        O  0.77206848  0.97166543  0.68254853    -0.64440
O687        O  0.80898211  0.89736182  0.62792399    -1.11050
C688        C  0.73667248  0.83549033  0.79652096     1.07130
O689        O  0.79109239  0.96919690  0.77353285    -0.77650
O690        O  0.82326431  0.91717058  0.80353991    -0.65230
Ni691      Ni  0.80041153  0.87949071  0.54837167     1.34870
C692        C  0.83959509  0.89603381  0.78052507     0.85870
O693        O  0.82008635  0.96774836  0.58961033    -0.78190
O694        O  0.82976971  0.92925668  0.52084147    -0.88470
C695        C  0.77454961  0.98234179  0.73570974     0.85440
O696        O  0.74986094  0.88435631  0.53479947    -0.66670
O697        O  0.74581645  0.86711706  0.82091881    -0.85960
C698        C  0.72941471  0.90010536  0.56282902     0.86270
C699        C  0.83389721  0.96146125  0.53956288     1.07840
H700        H  0.73352040  0.89375403  0.70764784     0.39640
O701        O  0.76251475  0.90195174  0.71369540    -1.08620
O702        O  0.82598803  0.87628450  0.73519866    -0.65270
Ni703      Ni  0.77893620  0.86374994  0.68677373     1.26350
O704        O  0.74152335  0.91863169  0.60942663    -0.65500
O705        O  0.74676581  0.83038155  0.74422472    -0.77790
C706        C  0.77482312  0.80958636  0.61169552     0.85660
O707        O  0.79443629  0.82613328  0.65550986    -0.64960
Ni708      Ni  0.76965209  0.91747903  0.79409894     1.27450
Ni709      Ni  0.79106861  0.93544764  0.65277294     1.26060
H710        H  0.83782533  0.90538202  0.63506190     0.40200
O711        O  0.65394434  0.69811501  0.11381309    -0.79760
O712        O  0.50048293  0.70564944  0.99408896    -0.64440
O713        O  0.58721957  0.67546813  0.03357702    -1.11050
C714        C  0.66543370  0.77365899  0.90924016     1.07130
O715        O  0.51861528  0.71279046  0.90052394    -0.77650
O716        O  0.58213539  0.69358994  0.86307541    -0.65230
Ni717      Ni  0.59536704  0.66951860  0.11640294     1.34870
C718        C  0.60874301  0.68049847  0.87542634     0.85870
O719        O  0.50221236  0.64997500  0.05727756    -0.78190
O720        O  0.53776584  0.64122235  0.13139489    -0.88470
C721        C  0.99931388  0.71959304  0.94398532     0.85440
O722        O  0.58953101  0.71340323  0.14414705    -0.66670
O723        O  0.63349895  0.76444528  0.87883031    -0.85960
C724        C  0.56967844  0.73159733  0.12487215     0.86270
C725        C  0.50416839  0.63596852  0.10645959     1.07840
H726        H  0.58676075  0.75199107  0.99291454     0.39640
O727        O  0.58340823  0.72902935  0.97325142    -1.08620
O728        O  0.62788316  0.68756903  0.92377643    -0.65270
Ni729      Ni  0.62779364  0.71680668  0.99431827     1.26350
O730        O  0.54871950  0.72275653  0.07908229    -0.65500
O731        O  0.66684451  0.75956768  0.95831685    -0.77790
C732        C  0.68096687  0.71000247  0.07299377     0.85660
O733        O  0.67174342  0.70529479  0.01955681    -0.64960
Ni734      Ni  0.57640057  0.73731385  0.89257320     1.27450
Ni735      Ni  0.54239447  0.68922561  0.01447810     1.26060
H736        H  0.58446629  0.65291462  0.01300530     0.40200
O737        O  0.69514176  0.68403666  0.55556763    -0.79760
O738        O  0.69956769  0.54339383  0.68341015    -0.64440
O739        O  0.67220350  0.62329525  0.63532500    -1.11050
C740        C  0.77032028  0.69517550  0.76310481     1.07130
O741        O  0.72914442  0.56341105  0.76947481    -0.77650
O742        O  0.68369998  0.60767705  0.79643314    -0.65230
Ni743      Ni  0.67041199  0.63036286  0.55183617     1.34870
C744        C  0.66967015  0.63274509  0.78824544     0.85870
O745        O  0.63987811  0.54762674  0.62087355    -0.78190
O746        O  0.64540844  0.57752962  0.53622174    -0.88470
C747        C  0.71784530  0.53969035  0.72828903     0.85440
O748        O  0.72352889  0.63046407  0.53499444    -0.66670
O749        O  0.75487799  0.66679822  0.79515608    -0.85960
C750        C  0.73657591  0.60585779  0.54919674     0.86270
C751        C  0.63281778  0.54795835  0.56661884     1.07840
H752        H  0.75667378  0.62196318  0.67403677     0.39640
O753        O  0.73159424  0.61956195  0.69488158    -1.08620
O754        O  0.68195449  0.65532036  0.74488488    -0.65270
Ni755      Ni  0.71669381  0.65921055  0.67394774     1.26350
O756        O  0.72040281  0.58329981  0.59079676    -0.65500
O757        O  0.76300516  0.69474119  0.70928191    -0.77790
C758        C  0.70506270  0.70773950  0.59701736     0.85660
O759        O  0.70221656  0.69834907  0.65031470    -0.64960
Ni760      Ni  0.73918096  0.61510381  0.77714626     1.27450
Ni761      Ni  0.68558038  0.58281978  0.65860428     1.26060
H762        H  0.64651430  0.62142741  0.65373806     0.40200
O763        O  0.94783182  0.69322708  0.43873937    -0.79760
O764        O  0.81099278  0.54379696  0.34493975    -0.64440
O765        O  0.91031956  0.62323513  0.37958059    -1.11050
C766        C  0.87839812  0.68283953  0.22428195     1.07130
O767        O  0.80874290  0.55073625  0.24770738    -0.77650
O768        O  0.89033969  0.59300003  0.21623715    -0.65230
Ni769      Ni  0.91787249  0.64134324  0.45950277     1.34870
C770        C  0.92574926  0.61605169  0.22851894     0.85870
O771        O  0.87106309  0.55155301  0.41822125    -0.78190
O772        O  0.89082634  0.59201949  0.49240884    -0.88470
C773        C  0.79454671  0.53356396  0.29559894     0.85440
O774        O  0.86817660  0.64972509  0.46185162    -0.66670
O775        O  0.86758065  0.65168016  0.19847375    -0.85960
C776        C  0.83312161  0.62513489  0.45393593     0.86270
C777        C  0.87740312  0.55899416  0.47250075     1.07840
H778        H  0.82820724  0.62223983  0.32519219     0.39640
O779        O  0.85061515  0.61580733  0.31061059    -1.08620
O780        O  0.93154143  0.64202936  0.26578063    -0.65270
Ni781      Ni  0.90009891  0.65531123  0.32653756     1.26350
O782        O  0.82753798  0.59606435  0.42354716    -0.65500
O783        O  0.88769061  0.68734692  0.27748989    -0.77790
C784        C  0.96127250  0.70954284  0.39000249     0.85660
O785        O  0.94962342  0.69418676  0.34137837    -0.64960
Ni786      Ni  0.84088616  0.60180419  0.22876315     1.27450
Ni787      Ni  0.86036074  0.58299732  0.36379617     1.26060
H788        H  0.93334617  0.61726129  0.36643619     0.40200
O789        O  0.53959449  0.83599377  0.45335026    -0.79760
O790        O  0.68178581  0.95706367  0.31625624    -0.64440
O791        O  0.57563102  0.89526433  0.37037879    -1.11050
C792        C  0.59236523  0.81028644  0.23538129     1.07130
O793        O  0.67479107  0.94279376  0.22118136    -0.77650
O794        O  0.59310956  0.90128901  0.20151376    -0.65230
Ni795      Ni  0.56407790  0.88974419  0.45442732     1.34870
C796        C  0.55644187  0.88248307  0.21760962     0.85870
O797        O  0.62748944  0.96858938  0.38868610    -0.78190
O798        O  0.58600484  0.94258971  0.46590869    -0.88470
C799        C  0.69524309  0.96183269  0.26359870     0.85440
O800        O  0.61427107  0.88677406  0.47796100    -0.66670
O801        O  0.60984393  0.83855424  0.20310009    -0.85960
C802        C  0.64947968  0.89829548  0.45328186     0.86270
C803        C  0.61027692  0.97067183  0.43782808     1.07840
H804        H  0.64973696  0.87725337  0.31592204     0.39640
O805        O  0.62967827  0.88566866  0.30047963    -1.08620
O806        O  0.54725758  0.86229210  0.26364095    -0.65270
Ni807      Ni  0.57747198  0.85349293  0.32833885     1.26350
O808        O  0.65747996  0.91432165  0.40405223    -0.65500
O809        O  0.58179799  0.81214911  0.28858986    -0.77790
C810        C  0.52178787  0.81301031  0.41327755     0.85660
O811        O  0.52637849  0.82202359  0.35966052    -0.64960
Ni812      Ni  0.64012484  0.89060447  0.21727923     1.27450
Ni813      Ni  0.62886956  0.92726952  0.34406907     1.26060
H814        H  0.55575633  0.90334275  0.35342472     0.40200
O815        O  0.80620154  0.78724543  0.10847463    -0.79760
O816        O  0.97546005  0.80785935  0.00089711    -0.64440
O817        O  0.88348236  0.82954388  0.05253576    -1.11050
C818        C  0.82626350  0.76299394  0.87959591     1.07130
O819        O  0.96944156  0.82663455  0.91320832    -0.77650
O820        O  0.90798058  0.84709524  0.87525744    -0.65230
Ni821      Ni  0.86154761  0.81832756  0.13146991     1.34870
C822        C  0.88221336  0.85898809  0.89898381     0.85870
O823        O  0.96198899  0.84475789  0.09498361    -0.78190
O824        O  0.91475597  0.84624712  0.16306336    -0.88470
C825        C  0.98289543  0.80822288  0.94609921     0.85440
O826        O  0.87049972  0.77427996  0.14145750    -0.66670
O827        O  0.86233258  0.77467962  0.85676634    -0.85960
C828        C  0.89159964  0.75886320  0.11436470     0.86270
C829        C  0.95170432  0.85255988  0.14637001     1.07840
H830        H  0.89007004  0.76650519  0.97141556     0.39640
O831        O  0.89652432  0.79251319  0.96598782    -1.08620
O832        O  0.86064335  0.84464367  0.94455090    -0.65270
Ni833      Ni  0.84997382  0.80129131  0.99125002     1.26350
O834        O  0.91458608  0.77291427  0.07015167    -0.65500
O835        O  0.81733400  0.77112397  0.93112688    -0.77790
C836        C  0.78603835  0.78901206  0.06412465     0.85660
O837        O  0.80367582  0.80900359  0.02109264    -0.64960
Ni838      Ni  0.91569384  0.80167428  0.88611815     1.27450
Ni839      Ni  0.93036317  0.81914458  0.02934708     1.26060
H840        H  0.88971306  0.85544776  0.04606338     0.40200
C841        C  0.52393260  0.88107911  0.17674245    -0.15300
C842        C  0.98375989  0.86649131  0.19115007    -0.30470
H843        H  0.53331338  0.88845006  0.13125996     0.13730
H844        H  0.97436219  0.86066729  0.23699981     0.14300
C845        C  0.87939041  0.71568180  0.19398880    -0.15300
C846        C  0.88983564  0.72332845  0.13724249    -0.30470
H847        H  0.87382995  0.73617243  0.22197966     0.13730
H848        H  0.89908239  0.70484182  0.10952322     0.14300
C849        C  0.99079871  0.74793824  0.38616145    -0.15300
C850        C  0.49636377  0.77426215  0.42861972    -0.30470
H851        H  0.00573371  0.75583032  0.34322156     0.13730
H852        H  0.48191642  0.76759708  0.47197628     0.14300
C853        C  0.73585812  0.99124105  0.25221458    -0.15300
C854        C  0.75640444  0.50061007  0.29613646    -0.30470
H855        H  0.73301040  0.50800842  0.21454905     0.13730
H856        H  0.74972142  0.48443233  0.33622422     0.14300
C857        C  0.61218641  0.51195763  0.53729731    -0.15300
C858        C  0.62074506  0.00782122  0.46413259    -0.30470
H859        H  0.59666261  0.48812597  0.56496186     0.13730
H860        H  0.63939516  0.03131138  0.43760937     0.14300
C861        C  0.77099659  0.60204029  0.51543985    -0.15300
C862        C  0.79783681  0.62967258  0.48371092    -0.30470
H863        H  0.77548716  0.57618517  0.51877502     0.13730
H864        H  0.79599463  0.65672770  0.48431610     0.14300
C865        C  0.79772426  0.72937401  0.78966551    -0.15300
C866        C  0.79320057  0.73624894  0.84664413    -0.30470
H867        H  0.82345742  0.74754011  0.76348078     0.13730
H868        H  0.76598176  0.71906748  0.87129398     0.14300
C869        C  0.96256869  0.61560255  0.19654497    -0.15300
C870        C  0.96498422  0.61613507  0.13743477    -0.30470
H871        H  0.99069061  0.62547925  0.22076373     0.13730
H872        H  0.43700966  0.60928539  0.11400013     0.14300
C873        C  0.74287176  0.76471346  0.05752763    -0.15300
C874        C  0.72332202  0.73350008  0.08806359    -0.30470
H875        H  0.72746274  0.77130462  0.02160297     0.13730
H876        H  0.73736185  0.72663870  0.12542658     0.14300
C877        C  0.99659241  0.77960212  0.92179529    -0.15300
C878        C  0.97751885  0.74469347  0.94089561    -0.30470
H879        H  0.02477423  0.78769677  0.89560053     0.13730
H880        H  0.45002290  0.73750291  0.96964038     0.14300
C881        C  0.57254887  0.76602924  0.15446751    -0.15300
C882        C  0.58425976  0.77362456  0.21003176    -0.30470
H883        H  0.56609256  0.78635177  0.12906417     0.13730
H884        H  0.58778960  0.75261796  0.23736164     0.14300
C885        C  0.64346273  0.63958960  0.83586050    -0.15300
C886        C  0.62104311  0.66010042  0.82757584    -0.30470
H887        H  0.64719569  0.63183884  0.88024797     0.13730
H888        H  0.61588878  0.66623554  0.78285285     0.14300
C889        C  0.85433304  0.99270625  0.49906990    -0.15300
C890        C  0.86586949  0.52839574  0.51536132    -0.30470
H891        H  0.85832638  0.98622555  0.45325738     0.13730
H892        H  0.86296249  0.53490047  0.56145793     0.14300
C893        C  0.76218246  0.50690885  0.75539716    -0.15300
C894        C  0.72870757  0.50711597  0.72913229    -0.30470
H895        H  0.77355601  0.03220085  0.78297491     0.13730
H896        H  0.71306308  0.48511368  0.69837442     0.14300
C897        C  0.75512277  0.76916116  0.61576005    -0.15300
C898        C  0.72402465  0.74749004  0.58303451    -0.30470
H899        H  0.76496337  0.75680622  0.65164787     0.13730
H900        H  0.71417321  0.75845055  0.54556483     0.14300
C901        C  0.87315202  0.89005500  0.81054712    -0.15300
C902        C  0.87270819  0.88823366  0.86969984    -0.30470
H903        H  0.88945416  0.87594630  0.78512507     0.13730
H904        H  0.85383716  0.89987494  0.89499883     0.14300
C905        C  0.71018280  0.80268730  0.82794095    -0.15300
C906        C  0.70218218  0.80251119  0.88560719    -0.30470
H907        H  0.69329045  0.77866306  0.80147888     0.13730
H908        H  0.72010571  0.82500901  0.91393618     0.14300
C909        C  0.69030643  0.89812785  0.53911415    -0.15300
C910        C  0.68370403  0.89313954  0.48137420    -0.30470
H911        H  0.66893509  0.90494105  0.56769217     0.13730
H912        H  0.70712174  0.88988839  0.45230267     0.14300
loop_ 
_geom_bond_atom_site_label_1 
_geom_bond_atom_site_label_2 
_geom_bond_distance 
_geom_bond_site_symmetry_2 
_ccdc_geom_bond_type 
O1           Ni7   1.957       .  S
O1           C22   1.274       .  A
O2          Ni25   1.887       .  S
O2           C11   1.267       .  A
O3           Ni7   1.922       .  S
O3          Ni25   1.898       .  S
O3          Ni19   1.891       .  S
O3           H26   0.966       .  S
C4           O21   1.267       .  A
C4           O13   1.279       .  A
C4          C221   1.462       .  S
O5          Ni24   1.939       .  S
O5           C11   1.275       .  A
O6          Ni24   1.917       .  S
O6            C8   1.273       .  A
Ni7          O10   1.930       .  S
Ni7          O12   1.905       .  S
C8           O18   1.273       .  A
C8          C217   1.481       .  S
O9          Ni25   1.930       .  S
O9           C15   1.282       .  A
O10          C15   1.280       .  A
C11         C437   1.473       .  S
O12          C14   1.267       .  A
O13         Ni24   1.937       .  S
C14          O20   1.265       .  A
C14         C225   1.471       .  S
C15         C205   1.481       .  S
H16          O17   0.966       .  S
O17         Ni25   1.908       .  S
O17         Ni19   1.886       .  S
O17         Ni24   1.912       .  S
O18         Ni19   1.927       .  S
Ni19         O23   1.878       .  S
Ni19         O21   1.888       .  S
O20         Ni25   1.918       .  S
C22          O23   1.257       .  A
C22         C213   1.469       .  S
O27         Ni33   1.955       .  S
O27          C48   1.273       .  A
O28         Ni51   1.888   1_556  S
O28         C493   1.264       .  A
O29         Ni33   1.938       .  S
O29         Ni51   1.914       .  S
O29         Ni45   1.915       .  S
O29          H52   0.966       .  S
C30          O47   1.267       .  A
C30          O39   1.275       .  A
C30         C222   1.466       .  S
O31         Ni50   1.921       .  S
O31         C493   1.270       .  A
O32         Ni50   1.910       .  S
O32          C34   1.271       .  A
Ni33         O36   1.939       .  S
Ni33         O38   1.902       .  S
C34          O44   1.276       .  A
C34         C202   1.481       .  S
O35         Ni51   1.908       .  S
O35          C41   1.270       .  A
O36          C41   1.279       .  A
C37         O484   1.264       .  A
C37         O487   1.269       .  A
C37         C194   1.462       .  S
O38          C40   1.268       .  A
O39         Ni50   1.925       .  S
C40          O46   1.268       .  A
C40         C197   1.471       .  S
C41         C642   1.482   1_455  S
H42          O43   0.966       .  S
O43         Ni51   1.902   1_556  S
O43         Ni45   1.883   1_556  S
O43         Ni50   1.911       .  S
O44         Ni45   1.943   1_556  S
Ni45         O49   1.882       .  S
Ni45         O47   1.901   1_554  S
O46         Ni51   1.921       .  S
C48          O49   1.262       .  A
C48         C190   1.480       .  S
O53         Ni59   1.948       .  S
O53          C74   1.273       .  A
O54         Ni77   1.892       .  S
O54          C63   1.266       .  A
O55         Ni59   1.928       .  S
O55         Ni77   1.903       .  S
O55         Ni71   1.899       .  S
O55          H78   0.966       .  S
C56          O73   1.262       .  A
C56          O65   1.269       .  A
C56         C181   1.464       .  S
O57         Ni76   1.932       .  S
O57          C63   1.273       .  A
O58         Ni76   1.914       .  S
O58          C60   1.279       .  A
Ni59         O62   1.948       .  S
Ni59         O64   1.899       .  S
C60          O70   1.282       .  A
C60         C201   1.476       .  S
O61         Ni77   1.903       .  S
O61          C67   1.270       .  A
O62          C67   1.279       .  A
C63         C210   1.470       .  S
O64          C66   1.266       .  A
O65         Ni76   1.932       .  S
C66          O72   1.271       .  A
C66         C177   1.468       .  S
C67         C173   1.479       .  S
H68          O69   0.965       .  S
O69         Ni77   1.921       .  S
O69         Ni71   1.890       .  S
O69         Ni76   1.924       .  S
O70         Ni71   1.948       .  S
Ni71         O75   1.882       .  S
Ni71         O73   1.900       .  S
O72         Ni77   1.933       .  S
C74          O75   1.263       .  A
C74         C214   1.476       .  S
O79         Ni85   1.949       .  S
O79         C100   1.273       .  A
O80        Ni103   1.887       .  S
O80          C89   1.267       .  A
O81         Ni85   1.929       .  S
O81        Ni103   1.908       .  S
O81         Ni97   1.903       .  S
O81         H104   0.966       .  S
C82          O99   1.260       .  A
C82          O91   1.276       .  A
C82         C161   1.472       .  S
O83        Ni102   1.949       .  S
O83          C89   1.279       .  A
O84        Ni102   1.921       .  S
O84          C86   1.275       .  A
Ni85         O88   1.949       .  S
Ni85         O90   1.903       .  S
C86          O96   1.273       .  A
C86         C185   1.476       .  S
O87        Ni103   1.908       .  S
O87          C93   1.271       .  A
O88          C93   1.276       .  A
C89         C170   1.474       .  S
O90          C92   1.266       .  A
O91        Ni102   1.958       .  S
C92          O98   1.276       .  A
C92         C178   1.462       .  S
C93         C206   1.482       .  S
H94          O95   0.966       .  S
O95        Ni103   1.914       .  S
O95         Ni97   1.887       .  S
O95        Ni102   1.934       .  S
O96         Ni97   1.930       .  S
Ni97        O101   1.873       .  S
Ni97         O99   1.884       .  S
O98        Ni103   1.943       .  S
C100        O101   1.258       .  A
C100        C165   1.466       .  S
O105       Ni111   1.953       .  S
O105        C126   1.273       .  A
O106       Ni129   1.882       .  S
O106        C115   1.265       .  A
O107       Ni111   1.941       .  S
O107       Ni129   1.908       .  S
O107       Ni123   1.904       .  S
O107        H130   0.966       .  S
C108        O125   1.267       .  A
C108        O117   1.277       .  A
C108        C198   1.468       .  S
O109       Ni128   1.951       .  S
O109        C115   1.277       .  A
O110       Ni128   1.919       .  S
O110        C112   1.275       .  A
Ni111       O114   1.935       .  S
Ni111       O116   1.913       .  S
C112        O122   1.273       .  A
C112        C157   1.479       .  S
O113       Ni129   1.910       .  S
O113        C119   1.272       .  A
O114        C119   1.277       .  A
C115        C169   1.481       .  S
O116        C118   1.269       .  A
O117       Ni128   1.939       .  S
C118        O124   1.265       .  A
C118        C226   1.466       .  S
C119        C174   1.480       .  S
H120        O121   0.966       .  S
O121       Ni129   1.901       .  S
O121       Ni123   1.889       .  S
O121       Ni128   1.921       .  S
O122       Ni123   1.931       .  S
Ni123       O127   1.877       .  S
Ni123       O125   1.898       .  S
O124       Ni129   1.910       .  S
C126        O127   1.262       .  A
C126        C166   1.480   1_455  S
O131       Ni137   1.963       .  S
O131        C152   1.276       .  A
O132       Ni155   1.888   1_556  S
O132        C141   1.264       .  A
O133       Ni137   1.925       .  S
O133       Ni155   1.900       .  S
O133       Ni149   1.904   1_554  S
O133        H156   0.967       .  S
C134        O151   1.273       .  A
C134        O143   1.277       .  A
C134        C182   1.466       .  S
O135       Ni154   1.918       .  S
O135        C141   1.270       .  A
O136       Ni154   1.919       .  S
O136        C138   1.273       .  A
Ni137       O140   1.946       .  S
Ni137       O142   1.904       .  S
C138        O148   1.273       .  A
C138        C218   1.480       .  S
O139       Ni155   1.915       .  S
O139        C145   1.276       .  A
O140        C145   1.284       .  A
C141        C193   1.471       .  S
O142        C144   1.268       .  A
O143       Ni154   1.922       .  S
C144        O150   1.267       .  A
C144        C162   1.482       .  S
C145        C158   1.483       .  S
H146        O147   0.966       .  S
O147       Ni155   1.913   1_556  S
O147       Ni149   1.883       .  S
O147       Ni154   1.913       .  S
O148       Ni149   1.928       .  S
Ni149       O153   1.882   1_556  S
Ni149       O151   1.907       .  S
O150       Ni155   1.927       .  S
C152        O153   1.259       .  A
C152        C189   1.474       .  S
C157        H159   1.087   1_455  S
C157        C614   1.344       .  D
C158        H160   1.087       .  S
C158        C613   1.344       .  D
C161        H163   1.087       .  S
C161        C162   1.342       .  D
C162        H164   1.087       .  S
C165        H167   1.088       .  S
C165        C622   1.345       .  D
C166        H168   1.086       .  S
C166        C621   1.345       .  D
C169        H399   1.086       .  S
C169        C398   1.351       .  D
C170        H172   1.088   1_545  S
C170        C397   1.347   1_545  D
H171        C397   1.086   1_545  S
C173        H175   1.087   1_545  S
C173        C402   1.347       .  D
C174        H176   1.087       .  S
C174        C401   1.346       .  D
C177        H179   1.088       .  S
C177        C178   1.340       .  D
C178        H180   1.086       .  S
C181        H183   1.087       .  S
C181        C182   1.342       .  D
C182        H184   1.087       .  S
C185        H187   1.087       .  S
C185        C186   1.343       .  D
C186        C497   1.482       .  S
C186        H644   1.087       .  S
H188        C642   1.088       .  S
C189        H191   1.086       .  S
C189        C190   1.347       .  D
C190        H192   1.086       .  S
C193        H195   1.086       .  S
C193        C194   1.349       .  D
C194        H652   1.089       .  S
H196        C650   1.088       .  S
C197        H199   1.087       .  S
C197        C198   1.341       .  D
C198        H200   1.087       .  S
C201        H203   1.087       .  S
C201        C202   1.347       .  D
C202        H204   1.087       .  S
C205        H207   1.087       .  S
C205        C434   1.346       .  D
C206        H208   1.087       .  S
C206        C433   1.346   1_545  D
C209        C239   1.476   1_545  S
C209        H439   1.086       .  S
C209        C210   1.348       .  D
C210        H212   1.088   1_545  S
H211        C437   1.086       .  S
C213        H215   1.087       .  S
C213        C214   1.345       .  D
C214        H216   1.086       .  S
C217        H219   1.087       .  S
C217        C218   1.347       .  D
C218        H220   1.087       .  S
C221        H223   1.088       .  S
C221        C222   1.337       .  D
C222        H224   1.087       .  S
C225        H227   1.087       .  S
C225        C226   1.339       .  D
C226        H228   1.088       .  S
O229       Ni235   1.963       .  S
O229        C250   1.275       .  A
O230       Ni253   1.891       .  S
O230        C239   1.268       .  A
O231       Ni235   1.922       .  S
O231       Ni253   1.899       .  S
O231       Ni247   1.890       .  S
O231        H254   0.966       .  S
C232        O249   1.267       .  A
C232        O241   1.279       .  A
C232        C449   1.456       .  S
O233       Ni252   1.937       .  S
O233        C239   1.275       .  A
O234       Ni252   1.921       .  S
O234        C236   1.274       .  A
Ni235       O238   1.936       .  S
Ni235       O240   1.905       .  S
C236        O246   1.273       .  A
C236        C445   1.484       .  S
O237       Ni253   1.925       .  S
O237        C243   1.282       .  A
O238        C243   1.282       .  A
O240        C242   1.267       .  A
O241       Ni252   1.931       .  S
C242        O248   1.267       .  A
C242        C453   1.476       .  S
C243        C433   1.483       .  S
H244        O245   0.966       .  S
O245       Ni253   1.907       .  S
O245       Ni247   1.885       .  S
O245       Ni252   1.912       .  S
O246       Ni247   1.927       .  S
Ni247       O251   1.878       .  S
Ni247       O249   1.886       .  S
O248       Ni253   1.924       .  S
C250        O251   1.257       .  A
C250        C441   1.473       .  S
O255       Ni261   1.948       .  S
O255        C276   1.271       .  A
O256       Ni279   1.898   1_556  S
O256        C721   1.263   1_455  A
O257       Ni261   1.948       .  S
O257       Ni279   1.922       .  S
O257       Ni273   1.922   1_554  S
O257        H280   0.967       .  S
C258        O275   1.266       .  A
C258        O267   1.273       .  A
C258        C450   1.458       .  S
O259       Ni278   1.908       .  S
O259        C721   1.268   1_455  A
O260       Ni278   1.908       .  S
O260        C262   1.271       .  A
Ni261       O264   1.939       .  S
Ni261       O266   1.904       .  S
C262        O272   1.282       .  A
C262        C430   1.488       .  S
O263       Ni279   1.910       .  S
O263        C269   1.271       .  A
O264        C269   1.278       .  A
C265        O712   1.263       .  A
C265        O715   1.267       .  A
C265        C422   1.466       .  S
O266        C268   1.266       .  A
O267       Ni278   1.914       .  S
C268        O274   1.265       .  A
C268        C425   1.468       .  S
C269        C870   1.484   1_455  S
H270        O271   0.966       .  S
O271       Ni279   1.915   1_556  S
O271       Ni273   1.885       .  S
O271       Ni278   1.911       .  S
O272       Ni273   1.957       .  S
Ni273       O277   1.885   1_556  S
Ni273       O275   1.901       .  S
O274       Ni279   1.915       .  S
C276        O277   1.262       .  A
C276        C418   1.481       .  S
O281       Ni287   1.949       .  S
O281        C302   1.273       .  A
O282       Ni305   1.893       .  S
O282        C291   1.266       .  A
O283       Ni287   1.931       .  S
O283       Ni305   1.907       .  S
O283       Ni299   1.899       .  S
O283        H306   0.967       .  S
C284        O301   1.259       .  A
C284        O293   1.269       .  A
C284        C409   1.460       .  S
O285       Ni304   1.927       .  S
O285        C291   1.272       .  A
O286       Ni304   1.910       .  S
O286        C288   1.276       .  A
Ni287       O290   1.950       .  S
Ni287       O292   1.905       .  S
C288        O298   1.288       .  A
C288        C429   1.489       .  S
O289       Ni305   1.902       .  S
O289        C295   1.269       .  A
O290        C295   1.280       .  A
C291        C438   1.468       .  S
O292        C294   1.267       .  A
O293       Ni304   1.929       .  S
C294        O300   1.272       .  A
C294        C405   1.473       .  S
C295        C401   1.479       .  S
H296        O297   0.965       .  S
O297       Ni305   1.919       .  S
O297       Ni299   1.893       .  S
O297       Ni304   1.921       .  S
O298       Ni299   1.969       .  S
Ni299       O303   1.884       .  S
Ni299       O301   1.896       .  S
O300       Ni305   1.940       .  S
C302        O303   1.264       .  A
C302        C442   1.480       .  S
O307       Ni313   1.963       .  S
O307        C328   1.275       .  A
O308       Ni331   1.894       .  S
O308        C317   1.269       .  A
O309       Ni313   1.931       .  S
O309       Ni331   1.910       .  S
O309       Ni325   1.893       .  S
O309        H332   0.966       .  S
C310        O327   1.258       .  A
C310        O319   1.273       .  A
C310        C389   1.459       .  S
O311       Ni330   1.939       .  S
O311        C317   1.276       .  A
O312       Ni330   1.920       .  S
O312        C314   1.274       .  A
Ni313       O316   1.954       .  S
Ni313       O318   1.907       .  S
C314        O324   1.273       .  A
C314        C413   1.478       .  S
O315       Ni331   1.904       .  S
O315        C321   1.272       .  A
O316        C321   1.279       .  A
C317        C398   1.472       .  S
O318        C320   1.267       .  A
O319       Ni330   1.947       .  S
C320        O326   1.275       .  A
C320        C406   1.470       .  S
C321        C434   1.483       .  S
H322        O323   0.966       .  S
O323       Ni331   1.912       .  S
O323       Ni325   1.890       .  S
O323       Ni330   1.939       .  S
O324       Ni325   1.932       .  S
Ni325       O329   1.872       .  S
Ni325       O327   1.874       .  S
O326       Ni331   1.944       .  S
C328        O329   1.255       .  A
C328        C393   1.473       .  S
O333       Ni339   1.954       .  S
O333        C354   1.274       .  A
O334       Ni357   1.892       .  S
O334        C343   1.267       .  A
O335       Ni339   1.942       .  S
O335       Ni357   1.912       .  S
O335       Ni351   1.904       .  S
O335        H358   0.966       .  S
C336        O353   1.265       .  A
C336        O345   1.277       .  A
C336        C426   1.466       .  S
O337       Ni356   1.947       .  S
O337        C343   1.274       .  A
O338       Ni356   1.907       .  S
O338        C340   1.271       .  A
Ni339       O342   1.935       .  S
Ni339       O344   1.916       .  S
C340        O350   1.281       .  A
C340        C385   1.486       .  S
O341       Ni357   1.912       .  S
O341        C347   1.273       .  A
O342        C347   1.278       .  A
C343        C397   1.481       .  S
O344        C346   1.269       .  A
O345       Ni356   1.938       .  S
C346        O352   1.266       .  A
C346        C454   1.469       .  S
C347        C402   1.481   1_565  S
H348        O349   0.966       .  S
O349       Ni357   1.903       .  S
O349       Ni351   1.897       .  S
O349       Ni356   1.918       .  S
O350       Ni351   1.955       .  S
Ni351       O355   1.887       .  S
Ni351       O353   1.896       .  S
O352       Ni357   1.912       .  S
C354        O355   1.264       .  A
C354        C394   1.486   1_455  S
O359       Ni365   1.959       .  S
O359        C380   1.273       .  A
O360       Ni383   1.903       .  S
O360        C369   1.266   1_554  A
O361       Ni365   1.925       .  S
O361       Ni383   1.909       .  S
O361       Ni377   1.909   1_554  S
O361        H384   0.967       .  S
C362        O379   1.272       .  A
C362        O371   1.278       .  A
C362        C410   1.461       .  S
O363       Ni382   1.899       .  S
O363        C369   1.269       .  A
O364       Ni382   1.921       .  S
O364        C366   1.273       .  A
Ni365       O368   1.940       .  S
Ni365       O370   1.888       .  S
C366        O376   1.273       .  A
C366        C446   1.485       .  S
O367       Ni383   1.927       .  S
O367        C373   1.281       .  A
O368        C373   1.282       .  A
C369        C421   1.474       .  S
O370        C372   1.265       .  A
O371       Ni382   1.919       .  S
C372        O378   1.267       .  A
C372        C390   1.472       .  S
C373        C386   1.489       .  S
H374        O375   0.966       .  S
O375       Ni383   1.930   1_556  S
O375       Ni377   1.877       .  S
O375       Ni382   1.911       .  S
O376       Ni377   1.927       .  S
Ni377       O381   1.879   1_556  S
Ni377       O379   1.903       .  S
O378       Ni383   1.926       .  S
C380        O381   1.257       .  A
C380        C417   1.475       .  S
C385        H387   1.087       .  S
C385        C842   1.346   1_455  D
C386        H388   1.087       .  S
C386        C841   1.346       .  D
C389        H391   1.088       .  S
C389        C390   1.339       .  D
C390        H392   1.086       .  S
C393        H395   1.088       .  S
C393        C850   1.344       .  D
C394        H396   1.086       .  S
C394        C849   1.345       .  D
C398        H400   1.088       .  S
C401        H403   1.087       .  S
C402        H404   1.087       .  S
C405        H407   1.088       .  S
C405        C406   1.343       .  D
C406        H408   1.087       .  S
C409        H411   1.087       .  S
C409        C410   1.337       .  D
C410        H412   1.088       .  S
C413        H415   1.087       .  S
C413        C414   1.346       .  D
C414        C725   1.485       .  S
C414        H872   1.087       .  S
H416        C870   1.087       .  S
C417        H419   1.084       .  S
C417        C418   1.348       .  D
C418        H420   1.086       .  S
C421        H423   1.086       .  S
C421        C422   1.349       .  D
C422        H880   1.088       .  S
H424        C878   1.088       .  S
C425        H427   1.088       .  S
C425        C426   1.337       .  D
C426        H428   1.087       .  S
C429        H431   1.087       .  S
C429        C430   1.344       .  D
C430        H432   1.087       .  S
C433        H435   1.087       .  S
C434        H436   1.087       .  S
C437        C438   1.348       .  D
C438        H440   1.088       .  S
C441        H443   1.088       .  S
C441        C442   1.346       .  D
C442        H444   1.086       .  S
C445        H447   1.087       .  S
C445        C446   1.350       .  D
C446        H448   1.087       .  S
C449        H451   1.089       .  S
C449        C450   1.334       .  D
C450        H452   1.086       .  S
C453        H455   1.087       .  S
C453        C454   1.341       .  D
C454        H456   1.087       .  S
O457       Ni463   1.955       .  S
O457        C478   1.273       .  A
O458       Ni481   1.887       .  S
O458        C467   1.267       .  A
O459       Ni463   1.923       .  S
O459       Ni481   1.899       .  S
O459       Ni475   1.895       .  S
O459        H482   0.966       .  S
C460        O477   1.269       .  A
C460        O469   1.279       .  A
C460        C677   1.464       .  S
O461       Ni480   1.936       .  S
O461        C467   1.274       .  A
O462       Ni480   1.916       .  S
O462        C464   1.273       .  A
Ni463       O466   1.930       .  S
Ni463       O468   1.905       .  S
C464        O474   1.272       .  A
C464        C673   1.480       .  S
O465       Ni481   1.930       .  S
O465        C471   1.282       .  A
O466        C471   1.280       .  A
C467        C893   1.472       .  S
O468        C470   1.267       .  A
O469       Ni480   1.936       .  S
C470        O476   1.265       .  A
C470        C681   1.472       .  S
C471        C661   1.483       .  S
H472        O473   0.966       .  S
O473       Ni481   1.909       .  S
O473       Ni475   1.885       .  S
O473       Ni480   1.912       .  S
O474       Ni475   1.926       .  S
Ni475       O479   1.880       .  S
Ni475       O477   1.893       .  S
O476       Ni481   1.918       .  S
C478        O479   1.258       .  A
C478        C669   1.469       .  S
O483       Ni489   1.953       .  S
O483        C504   1.272       .  A
O484       Ni507   1.892   1_556  S
O485       Ni489   1.941       .  S
O485       Ni507   1.917       .  S
O485       Ni501   1.917       .  S
O485        H508   0.966       .  S
C486        O503   1.267       .  A
C486        O495   1.274       .  A
C486        C678   1.468       .  S
O487       Ni506   1.917       .  S
O488       Ni506   1.913       .  S
O488        C490   1.272       .  A
Ni489       O492   1.940       .  S
Ni489       O494   1.902       .  S
C490        O500   1.276       .  A
C490        C658   1.482       .  S
O491       Ni507   1.905       .  S
O491        C497   1.269       .  A
O492        C497   1.279       .  A
C493        C650   1.458   1_455  S
O494        C496   1.268       .  A
O495       Ni506   1.923       .  S
C496        O502   1.268       .  A
C496        C653   1.471       .  S
H498        O499   0.966       .  S
O499       Ni507   1.907   1_556  S
O499       Ni501   1.884   1_556  S
O499       Ni506   1.915       .  S
O500       Ni501   1.942   1_556  S
Ni501       O505   1.881       .  S
Ni501       O503   1.905   1_554  S
O502       Ni507   1.922       .  S
C504        O505   1.261       .  A
C504        C646   1.478       .  S
O509       Ni515   1.950       .  S
O509        C530   1.273       .  A
O510       Ni533   1.892       .  S
O510        C519   1.266       .  A
O511       Ni515   1.929       .  S
O511       Ni533   1.903       .  S
O511       Ni527   1.898       .  S
O511        H534   0.967       .  S
C512        O529   1.262       .  A
C512        O521   1.269       .  A
C512        C637   1.464       .  S
O513       Ni532   1.934       .  S
O513        C519   1.274       .  A
O514       Ni532   1.916       .  S
O514        C516   1.279       .  A
Ni515       O518   1.949       .  S
Ni515       O520   1.899       .  S
C516        O526   1.281       .  A
C516        C657   1.477       .  S
O517       Ni533   1.903       .  S
O517        C523   1.270       .  A
O518        C523   1.280       .  A
C519        C666   1.471       .  S
O520        C522   1.266       .  A
O521       Ni532   1.933       .  S
C522        O528   1.271       .  A
C522        C633   1.467       .  S
C523        C629   1.479       .  S
H524        O525   0.965       .  S
O525       Ni533   1.922       .  S
O525       Ni527   1.890       .  S
O525       Ni532   1.924       .  S
O526       Ni527   1.947       .  S
Ni527       O531   1.879       .  S
Ni527       O529   1.899       .  S
O528       Ni533   1.934       .  S
C530        O531   1.262       .  A
C530        C670   1.476       .  S
O535       Ni541   1.950       .  S
O535        C556   1.273       .  A
O536       Ni559   1.890       .  S
O536        C545   1.267       .  A
O537       Ni541   1.930       .  S
O537       Ni559   1.909       .  S
O537       Ni553   1.906       .  S
O537        H560   0.969       .  S
C538        O555   1.261       .  A
C538        O547   1.276       .  A
C538        C617   1.472       .  S
O539       Ni558   1.947       .  S
O539        C545   1.278       .  A
O540       Ni558   1.921       .  S
O540        C542   1.275       .  A
Ni541       O544   1.950       .  S
Ni541       O546   1.903       .  S
C542        O552   1.273       .  A
C542        C641   1.476       .  S
O543       Ni559   1.908       .  S
O543        C549   1.270       .  A
O544        C549   1.276       .  A
C545        C626   1.474       .  S
O546        C548   1.267       .  A
O547       Ni558   1.955       .  S
C548        O554   1.276       .  A
C548        C634   1.463       .  S
C549        C662   1.482       .  S
H550        O551   0.966       .  S
O551       Ni559   1.913       .  S
O551       Ni553   1.888       .  S
O551       Ni558   1.934       .  S
O552       Ni553   1.929       .  S
Ni553       O557   1.874       .  S
Ni553       O555   1.887       .  S
O554       Ni559   1.943       .  S
C556        O557   1.258       .  A
C556        C621   1.467       .  S
O561       Ni567   1.954       .  S
O561        C582   1.273       .  A
O562       Ni585   1.881       .  S
O562        C571   1.265       .  A
O563       Ni567   1.940       .  S
O563       Ni585   1.907       .  S
O563       Ni579   1.903       .  S
O563        H586   0.966       .  S
C564        O581   1.267       .  A
C564        O573   1.278       .  A
C564        C654   1.469       .  S
O565       Ni584   1.954       .  S
O565        C571   1.278       .  A
O566       Ni584   1.921       .  S
O566        C568   1.275       .  A
Ni567       O570   1.936       .  S
Ni567       O572   1.913       .  S
C568        O578   1.273       .  A
C568        C613   1.481       .  S
O569       Ni585   1.911       .  S
O569        C575   1.272       .  A
O570        C575   1.278       .  A
C571        C625   1.483       .  S
O572        C574   1.269       .  A
O573       Ni584   1.942       .  S
C574        O580   1.265       .  A
C574        C682   1.466       .  S
C575        C630   1.481       .  S
H576        O577   0.966       .  S
O577       Ni585   1.901       .  S
O577       Ni579   1.889       .  S
O577       Ni584   1.921       .  S
O578       Ni579   1.931       .  S
Ni579       O583   1.876       .  S
Ni579       O581   1.897       .  S
O580       Ni585   1.909       .  S
C582        O583   1.261       .  A
C582        C622   1.480       .  S
O587       Ni593   1.959       .  S
O587        C608   1.276       .  A
O588       Ni611   1.887   1_556  S
O588        C597   1.265       .  A
O589       Ni593   1.920       .  S
O589       Ni611   1.896       .  S
O589       Ni605   1.904   1_554  S
O589        H612   0.966       .  S
C590        O607   1.274       .  A
C590        O599   1.278       .  A
C590        C638   1.467       .  S
O591       Ni610   1.919       .  S
O591        C597   1.270       .  A
O592       Ni610   1.916       .  S
O592        C594   1.272       .  A
Ni593       O596   1.942       .  S
Ni593       O598   1.905       .  S
C594        O604   1.272       .  A
C594        C674   1.479       .  S
O595       Ni611   1.918       .  S
O595        C601   1.277       .  A
O596        C601   1.283       .  A
C597        C649   1.467       .  S
O598        C600   1.268       .  A
O599       Ni610   1.922       .  S
C600        O606   1.268       .  A
C600        C618   1.482       .  S
C601        C614   1.482   1_655  S
H602        O603   0.966       .  S
O603       Ni611   1.909   1_556  S
O603       Ni605   1.881       .  S
O603       Ni610   1.909       .  S
O604       Ni605   1.927       .  S
Ni605       O609   1.882   1_556  S
Ni605       O607   1.909       .  S
O606       Ni611   1.929       .  S
C608        O609   1.260       .  A
C608        C645   1.471       .  S
C613        H615   1.087       .  S
C614        H616   1.088       .  S
C617        H619   1.087       .  S
C617        C618   1.343       .  D
C618        H620   1.086       .  S
C621        H623   1.088   1_655  S
C622        H624   1.086       .  S
C625        H855   1.086       .  S
C625        C854   1.352       .  D
C626        H628   1.088   1_545  S
C626        C853   1.348   1_545  D
H627        C853   1.086   1_545  S
C629        H631   1.087   1_545  S
C629        C858   1.347       .  D
C630        H632   1.087       .  S
C630        C857   1.347       .  D
C633        H635   1.088       .  S
C633        C634   1.340       .  D
C634        H636   1.087       .  S
C637        H639   1.087       .  S
C637        C638   1.342       .  D
C638        H640   1.087       .  S
C641        H643   1.087       .  S
C641        C642   1.343       .  D
C645        H647   1.087       .  S
C645        C646   1.347       .  D
C646        H648   1.086       .  S
C649        H651   1.086   1_655  S
C649        C650   1.347       .  D
C653        H655   1.087       .  S
C653        C654   1.340       .  D
C654        H656   1.087       .  S
C657        H659   1.087       .  S
C657        C658   1.347       .  D
C658        H660   1.087       .  S
C661        H663   1.087       .  S
C661        C890   1.346       .  D
C662        H664   1.087       .  S
C662        C889   1.346   1_545  D
C665        C695   1.477   1_545  S
C665        H895   1.086       .  S
C665        C666   1.349       .  D
C666        H668   1.088   1_545  S
H667        C893   1.086       .  S
C669        H671   1.087       .  S
C669        C670   1.346       .  D
C670        H672   1.086       .  S
C673        H675   1.087       .  S
C673        C674   1.347       .  D
C674        H676   1.087       .  S
C677        H679   1.088       .  S
C677        C678   1.339       .  D
C678        H680   1.087       .  S
C681        H683   1.087       .  S
C681        C682   1.339       .  D
C682        H684   1.087       .  S
O685       Ni691   1.963       .  S
O685        C706   1.275       .  A
O686       Ni709   1.893       .  S
O686        C695   1.269       .  A
O687       Ni691   1.922       .  S
O687       Ni709   1.901       .  S
O687       Ni703   1.890       .  S
O687        H710   0.966       .  S
C688        O705   1.266       .  A
C688        O697   1.279       .  A
C688        C905   1.456       .  S
O689       Ni708   1.937       .  S
O689        C695   1.275       .  A
O690       Ni708   1.921       .  S
O690        C692   1.274       .  A
Ni691       O694   1.935       .  S
Ni691       O696   1.905       .  S
C692        O702   1.273       .  A
C692        C901   1.484       .  S
O693       Ni709   1.926       .  S
O693        C699   1.282       .  A
O694        C699   1.282       .  A
O696        C698   1.267       .  A
O697       Ni708   1.931       .  S
C698        O704   1.267       .  A
C698        C909   1.476       .  S
C699        C889   1.483       .  S
H700        O701   0.966       .  S
O701       Ni709   1.907       .  S
O701       Ni703   1.886       .  S
O701       Ni708   1.913       .  S
O702       Ni703   1.927       .  S
Ni703       O707   1.879       .  S
Ni703       O705   1.885       .  S
O704       Ni709   1.923       .  S
C706        O707   1.257       .  A
C706        C897   1.473       .  S
O711       Ni717   1.948       .  S
O711        C732   1.271       .  A
O712       Ni735   1.899   1_556  S
O713       Ni717   1.948       .  S
O713       Ni735   1.922       .  S
O713       Ni729   1.922   1_554  S
O713        H736   0.966       .  S
C714        O731   1.266       .  A
C714        O723   1.273       .  A
C714        C906   1.457       .  S
O715       Ni734   1.907       .  S
O716       Ni734   1.909       .  S
O716        C718   1.271       .  A
Ni717       O720   1.939       .  S
Ni717       O722   1.903       .  S
C718        O728   1.282       .  A
C718        C886   1.489       .  S
O719       Ni735   1.909       .  S
O719        C725   1.271       .  A
O720        C725   1.278       .  A
C721        C878   1.465       .  S
O722        C724   1.267       .  A
O723       Ni734   1.913       .  S
C724        O730   1.265       .  A
C724        C881   1.468       .  S
H726        O727   0.966       .  S
O727       Ni735   1.916   1_556  S
O727       Ni729   1.885       .  S
O727       Ni734   1.911       .  S
O728       Ni729   1.958       .  S
Ni729       O733   1.884   1_556  S
Ni729       O731   1.901       .  S
O730       Ni735   1.917       .  S
C732        O733   1.262       .  A
C732        C874   1.481       .  S
O737       Ni743   1.951       .  S
O737        C758   1.274       .  A
O738       Ni761   1.892       .  S
O738        C747   1.266       .  A
O739       Ni743   1.932       .  S
O739       Ni761   1.906       .  S
O739       Ni755   1.899       .  S
O739        H762   0.966       .  S
C740        O757   1.259       .  A
C740        O749   1.269       .  A
C740        C865   1.460       .  S
O741       Ni760   1.926       .  S
O741        C747   1.272       .  A
O742       Ni760   1.910       .  S
O742        C744   1.276       .  A
Ni743       O746   1.951       .  S
Ni743       O748   1.905       .  S
C744        O754   1.288       .  A
C744        C885   1.490       .  S
O745       Ni761   1.903       .  S
O745        C751   1.269       .  A
O746        C751   1.280       .  A
C747        C894   1.466       .  S
O748        C750   1.267       .  A
O749       Ni760   1.928       .  S
C750        O756   1.272       .  A
C750        C861   1.473       .  S
C751        C857   1.480       .  S
H752        O753   0.966       .  S
O753       Ni761   1.919       .  S
O753       Ni755   1.892       .  S
O753       Ni760   1.921       .  S
O754       Ni755   1.970       .  S
Ni755       O759   1.883       .  S
Ni755       O757   1.896       .  S
O756       Ni761   1.940       .  S
C758        O759   1.264       .  A
C758        C898   1.480       .  S
O763       Ni769   1.963       .  S
O763        C784   1.275       .  A
O764       Ni787   1.896       .  S
O764        C773   1.270       .  A
O765       Ni769   1.931       .  S
O765       Ni787   1.912       .  S
O765       Ni781   1.896       .  S
O765        H788   0.967       .  S
C766        O783   1.258       .  A
C766        O775   1.273       .  A
C766        C845   1.459       .  S
O767       Ni786   1.940       .  S
O767        C773   1.276       .  A
O768       Ni786   1.919       .  S
O768        C770   1.274       .  A
Ni769       O772   1.954       .  S
Ni769       O774   1.906       .  S
C770        O780   1.274       .  A
C770        C869   1.478       .  S
O771       Ni787   1.906       .  S
O771        C777   1.272       .  A
O772        C777   1.279       .  A
C773        C854   1.474       .  S
O774        C776   1.267       .  A
O775       Ni786   1.949       .  S
C776        O782   1.276       .  A
C776        C862   1.469       .  S
C777        C890   1.484       .  S
H778        O779   0.966       .  S
O779       Ni787   1.912       .  S
O779       Ni781   1.889       .  S
O779       Ni786   1.938       .  S
O780       Ni781   1.933       .  S
Ni781       O785   1.874       .  S
Ni781       O783   1.874       .  S
O782       Ni787   1.946       .  S
C784        O785   1.256       .  A
C784        C849   1.475       .  S
O789       Ni795   1.952       .  S
O789        C810   1.273       .  A
O790       Ni813   1.889       .  S
O790        C799   1.266       .  A
O791       Ni795   1.942       .  S
O791       Ni813   1.910       .  S
O791       Ni807   1.904       .  S
O791        H814   0.966       .  S
C792        O809   1.265       .  A
C792        O801   1.277       .  A
C792        C882   1.467       .  S
O793       Ni812   1.950       .  S
O793        C799   1.275       .  A
O794       Ni812   1.909       .  S
O794        C796   1.272       .  A
Ni795       O798   1.934       .  S
Ni795       O800   1.917       .  S
C796        O806   1.281       .  A
C796        C841   1.487       .  S
O797       Ni813   1.912       .  S
O797        C803   1.273       .  A
O798        C803   1.277       .  A
C799        C853   1.482       .  S
O800        C802   1.269       .  A
O801       Ni812   1.940       .  S
C802        O808   1.265       .  A
C802        C910   1.469       .  S
C803        C858   1.481   1_565  S
H804        O805   0.966       .  S
O805       Ni813   1.903       .  S
O805       Ni807   1.896       .  S
O805       Ni812   1.917       .  S
O806       Ni807   1.957       .  S
Ni807       O811   1.887       .  S
Ni807       O809   1.896       .  S
O808       Ni813   1.910       .  S
C810        O811   1.265       .  A
C810        C850   1.484       .  S
O815       Ni821   1.959       .  S
O815        C836   1.273       .  A
O816       Ni839   1.902       .  S
O816        C825   1.266   1_554  A
O817       Ni821   1.925       .  S
O817       Ni839   1.909       .  S
O817       Ni833   1.908   1_554  S
O817        H840   0.967       .  S
C818        O835   1.272       .  A
C818        O827   1.278       .  A
C818        C866   1.461       .  S
O819       Ni838   1.899       .  S
O819        C825   1.269       .  A
O820       Ni838   1.921       .  S
O820        C822   1.273       .  A
Ni821       O824   1.940       .  S
Ni821       O826   1.888       .  S
C822        O832   1.272       .  A
C822        C902   1.484       .  S
O823       Ni839   1.924       .  S
O823        C829   1.280       .  A
O824        C829   1.281       .  A
C825        C877   1.474       .  S
O826        C828   1.265       .  A
O827       Ni838   1.918       .  S
C828        O834   1.267       .  A
C828        C846   1.474       .  S
C829        C842   1.488       .  S
H830        O831   0.966       .  S
O831       Ni839   1.929   1_556  S
O831       Ni833   1.877       .  S
O831       Ni838   1.912       .  S
O832       Ni833   1.926       .  S
Ni833       O837   1.879   1_556  S
Ni833       O835   1.903       .  S
O834       Ni839   1.928       .  S
C836        O837   1.257       .  A
C836        C873   1.474       .  S
C841        H843   1.087       .  S
C842        H844   1.087       .  S
C845        H847   1.088       .  S
C845        C846   1.339       .  D
C846        H848   1.086       .  S
C849        H851   1.088   1_655  S
C850        H852   1.086       .  S
C854        H856   1.088       .  S
C857        H859   1.087       .  S
C858        H860   1.087       .  S
C861        H863   1.088       .  S
C861        C862   1.342       .  D
C862        H864   1.087       .  S
C865        H867   1.087       .  S
C865        C866   1.337       .  D
C866        H868   1.088       .  S
C869        H871   1.087       .  S
C869        C870   1.346       .  D
C873        H875   1.084       .  S
C873        C874   1.348       .  D
C874        H876   1.086       .  S
C877        H879   1.086   1_655  S
C877        C878   1.349       .  D
C881        H883   1.088       .  S
C881        C882   1.337       .  D
C882        H884   1.087       .  S
C885        H887   1.087       .  S
C885        C886   1.345       .  D
C886        H888   1.087       .  S
C889        H891   1.087       .  S
C890        H892   1.087       .  S
C893        C894   1.347       .  D
C894        H896   1.088       .  S
C897        H899   1.088       .  S
C897        C898   1.347       .  D
C898        H900   1.086       .  S
C901        H903   1.087       .  S
C901        C902   1.349       .  D
C902        H904   1.087       .  S
C905        H907   1.089       .  S
C905        C906   1.334       .  D
C906        H908   1.086       .  S
C909        H911   1.087       .  S
C909        C910   1.341       .  D
C910        H912   1.087       .  S
