geometry optimzed in LAMMPS
_audit_creation_date              2020-11-30 
_audit_creation_method            'lammps2cif' 
_symmetry_space_group_name_H-M    'P1' 
_symmetry_Int_Tables_number       1 
_symmetry_cell_setting            triclinic 
loop_ 
_symmetry_equiv_pos_as_xyz 
  x,y,z 
_cell_length_a                    43.5633157 
_cell_length_b                    43.53452532634539 
_cell_length_c                    32.60739313637444 
_cell_angle_alpha                 89.95181874911027 
_cell_angle_beta                  89.92279440969719 
_cell_angle_gamma                 119.97903919255548 
loop_ 
_atom_site_label 
_atom_site_type_symbol 
_atom_site_fract_x 
_atom_site_fract_y 
_atom_site_fract_z 
_atom_site_charge 
O1          O  0.47367329  0.44789330  0.33140161    -0.72200
O2          O  0.06094639  0.03451067  0.32959844    -0.72500
O3          O  0.01872149  0.49200728  0.38820736    -0.72300
O4          O  0.01588323  0.49028006  0.27207945    -0.72300
O5          O  0.48936096  0.02134296  0.27350854    -0.72300
O6          O  0.48844817  0.01909807  0.38994315    -0.72300
O7          O  0.03269013  0.06367040  0.33274878    -0.72300
O8          O  0.44507999  0.47670045  0.32982929    -0.72400
V9          V  0.01671575  0.49174621  0.33012884     1.35200
V10         V  0.48946265  0.01971234  0.33173997     1.35200
C11         C  0.44438117  0.44733505  0.33017404     0.77000
C12         C  0.06182176  0.06394184  0.33144574     0.77000
C13         C  0.00395411  0.50579494  0.40841409     0.76900
C14         C  0.00244734  0.00583285  0.25332497     0.76900
O15         O  0.05500698  0.28424038  0.33713246    -0.72200
O16         O  0.46785812  0.19719978  0.33530562    -0.72500
O17         O  0.01180923  0.24144487  0.27844143    -0.72300
O18         O  0.01102200  0.23956745  0.39440492    -0.72300
O19         O  0.48070409  0.26678268  0.39528106    -0.72300
O20         O  0.48448080  0.27164997  0.27869666    -0.72300
O21         O  0.43913339  0.22596820  0.33412396    -0.72300
O22         O  0.02621220  0.31287980  0.33964834    -0.72400
V23         V  0.01088916  0.24121319  0.33637686     1.35200
V24         V  0.48323330  0.26884775  0.33698690     1.35200
C25         C  0.05552637  0.31354140  0.33844113     0.77000
C26         C  0.43858941  0.19669321  0.33360599     0.77000
C27         C  0.99788482  0.25629874  0.25872871     0.76900
C28         C  0.99521857  0.25224340  0.41468204     0.76900
O29         O  0.27809787  0.06145482  0.33617425    -0.72200
O30         O  0.19107706  0.47421745  0.33811604    -0.72500
O31         O  0.23557872  0.01850036  0.39597178    -0.72300
O32         O  0.23367853  0.01694304  0.27934413    -0.72300
O33         O  0.26193198  0.48762480  0.27906402    -0.72300
O34         O  0.26476049  0.49052850  0.39509759    -0.72300
O35         O  0.21992601  0.44562279  0.33901292    -0.72300
O36         O  0.30677582  0.03265756  0.33528598    -0.72400
V37         V  0.23515898  0.01719597  0.33763611     1.35200
V38         V  0.26279336  0.48974099  0.33705824     1.35200
C39         C  0.30738304  0.06196481  0.33527200     0.77000
C40         C  0.19059445  0.44491637  0.33912615     0.77000
C41         C  0.25040553  0.00445882  0.41568441     0.76900
C42         C  0.24759041  0.00205021  0.25949413     0.76900
O43         O  0.22719913  0.19405914  0.32894852    -0.72200
O44         O  0.31410465  0.28142977  0.32504568    -0.72500
O45         O  0.27262314  0.23852504  0.38517783    -0.72300
O46         O  0.26860471  0.23663285  0.26881842    -0.72300
O47         O  0.23976989  0.26527724  0.27037812    -0.72300
O48         O  0.24369376  0.26711172  0.38643130    -0.72300
O49         O  0.28515997  0.30988445  0.32646033    -0.72300
O50         O  0.19850137  0.22283583  0.33035068    -0.72400
V51         V  0.27013986  0.23824237  0.32701384     1.35200
V52         V  0.24239593  0.26575635  0.32836847     1.35200
C53         C  0.19793619  0.19353379  0.32993009     0.77000
C54         C  0.31456321  0.31068433  0.32550577     0.77000
C55         C  0.25824900  0.25261119  0.40568609     0.76900
C56         C  0.25334351  0.25054147  0.24971033     0.76900
O57         O  0.47241441  0.02968417  0.99751324    -0.72200
O58         O  0.05936586  0.02895612  0.99868260    -0.72500
O59         O  0.01690436  0.03028084  0.94028362    -0.72300
O60         O  0.01512098  0.02899951  0.05621712    -0.72300
O61         O  0.48729658  0.47036096  0.05499266    -0.72300
O62         O  0.48625151  0.47191591  0.93828121    -0.72300
O63         O  0.02998691  0.47057876  0.99503867    -0.72300
O64         O  0.44327808  0.47097000  0.99813611    -0.72400
V65         V  0.01541975  0.02837046  0.99818744     1.35200
V66         V  0.48724479  0.47203842  0.99663123     1.35200
C67         C  0.44269732  0.49968605  0.99775410     0.77000
C68         C  0.05942811  0.49912972  0.99582892     0.77000
C69         C  0.00213255  0.00197756  0.91978768     0.76900
C70         C  0.00129166  0.00015934  0.07595791     0.76900
O71         O  0.01710270  0.28261487  0.94506934    -0.72200
O72         O  0.01410317  0.28358007  0.06087035    -0.72500
O73         O  0.05915734  0.28254906  0.00500648    -0.72300
O74         O  0.47174436  0.28259286  0.00062043    -0.72300
O75         O  0.44331806  0.22517418  0.00336131    -0.72300
O76         O  0.03004922  0.22510119  0.00393358    -0.72300
O77         O  0.48670625  0.22612397  0.06213142    -0.72300
O78         O  0.48654740  0.22504160  0.94541435    -0.72400
V79         V  0.01501481  0.28173442  0.00297483     1.35200
V80         V  0.48729508  0.22645990  0.00375100     1.35200
C81         C  0.00182148  0.25385203  0.92546090     0.77000
C82         C  0.99968656  0.25522395  0.08140432     0.77000
C83         C  0.05948989  0.25363480  0.00459406     0.76900
C84         C  0.44251130  0.25370301  0.00097774     0.76900
O85         O  0.27818413  0.46501381  0.00627559    -0.72200
O86         O  0.19037816  0.46402795  0.00235222    -0.72500
O87         O  0.23503837  0.46323805  0.94642104    -0.72300
O88         O  0.23326185  0.46545191  0.06261147    -0.72300
O89         O  0.26244184  0.02393207  0.06148188    -0.72300
O90         O  0.26301344  0.02148890  0.94505284    -0.72300
O91         O  0.21917435  0.02235256  0.00183382    -0.72300
O92         O  0.30661682  0.02348232  0.00402404    -0.72400
V93         V  0.23476536  0.46551959  0.00445977     1.35200
V94         V  0.26226699  0.02169384  0.00323105     1.35200
C95         C  0.30724605  0.49401648  0.00501451     0.77000
C96         C  0.18956310  0.49263662  0.00078155     0.77000
C97         C  0.24856232  0.49152087  0.92566317     0.76900
C98         C  0.24764441  0.49450726  0.08181829     0.76900
O99         O  0.30505297  0.27441113  0.99585579    -0.72200
O100        O  0.21837391  0.27489311  0.99459258    -0.72500
O101        O  0.26063858  0.27359034  0.05315706    -0.72300
O102        O  0.26298009  0.27557207  0.93690415    -0.72300
O103        O  0.23181640  0.21804963  0.93581475    -0.72300
O104        O  0.23381336  0.21608720  0.05223375    -0.72300
O105        O  0.18933101  0.21744206  0.99618647    -0.72300
O106        O  0.27642131  0.21700356  0.99222746    -0.72400
V107        V  0.26116193  0.27348352  0.99505891     1.35200
V108        V  0.23335686  0.21820752  0.99405337     1.35200
C109        C  0.30567601  0.24572395  0.99436457     0.77000
C110        C  0.18896037  0.24631008  0.99599455     0.77000
C111        C  0.24744341  0.24457292  0.07256093     0.76900
C112        C  0.24780820  0.24712453  0.91653757     0.76900
O113        O  0.03043282  0.47463852  0.66436482    -0.72200
O114        O  0.02896138  0.06110357  0.66424833    -0.72500
O115        O  0.02954417  0.01812038  0.72279331    -0.72300
O116        O  0.02956248  0.01749124  0.60644184    -0.72300
O117        O  0.47253624  0.49007105  0.60589114    -0.72300
O118        O  0.47238706  0.48719336  0.72196306    -0.72300
O119        O  0.47154798  0.03185849  0.66624807    -0.72300
O120        O  0.47299206  0.44550144  0.66225718    -0.72400
V121        V  0.02845063  0.01725303  0.66464525     1.35200
V122        V  0.47358260  0.48930973  0.66392347     1.35200
C123        C  0.00184982  0.44522070  0.66362435     0.77000
C124        C  0.00009113  0.06135697  0.66529232     0.77000
C125        C  0.00077296  0.00218136  0.74260042     0.76900
C126        C  0.00078282  0.00370657  0.58663352     0.76900
O127        O  0.46805241  0.28078660  0.66809065    -0.72200
O128        O  0.46719764  0.19313317  0.67164595    -0.72500
O129        O  0.46731778  0.23817777  0.72816295    -0.72300
O130        O  0.46784087  0.23579546  0.61187076    -0.72300
O131        O  0.02528850  0.26400751  0.61210411    -0.72300
O132        O  0.02470215  0.26662807  0.72843150    -0.72300
O133        O  0.02464081  0.22156836  0.67202403    -0.72300
O134        O  0.02552747  0.30904742  0.66828727    -0.72400
V135        V  0.46870180  0.23751168  0.67000691     1.35200
V136        V  0.02392698  0.26475031  0.67025744     1.35200
C137        C  0.99695896  0.30989303  0.66713921     0.77000
C138        C  0.99580544  0.19234171  0.67205283     0.77000
C139        C  0.49586913  0.25282386  0.74829705     0.76900
C140        C  0.49666794  0.24942206  0.59205718     0.76900
O141        O  0.28115755  0.00957883  0.72898607    -0.72200
O142        O  0.28158327  0.01062114  0.61269338    -0.72500
O143        O  0.28030736  0.05287420  0.67123701    -0.72300
O144        O  0.28225488  0.46709445  0.66979113    -0.72300
O145        O  0.22492144  0.43699610  0.66746523    -0.72300
O146        O  0.22290483  0.02329519  0.67324473    -0.72300
O147        O  0.22355122  0.48219910  0.61215822    -0.72300
O148        O  0.22295818  0.47745580  0.72840211    -0.72400
V149        V  0.28025315  0.00939655  0.67083167     1.35200
V150        V  0.22440890  0.48032209  0.67028234     1.35200
C151        C  0.25155226  0.49329521  0.74840514     0.77000
C152        C  0.25243001  0.49716342  0.59245155     0.77000
C153        C  0.25129321  0.05286562  0.67221777     0.76900
C154        C  0.25417761  0.43737788  0.66790676     0.76900
O155        O  0.22291866  0.23052011  0.71732744    -0.72200
O156        O  0.22809775  0.23196461  0.60129576    -0.72500
O157        O  0.22578166  0.18774973  0.66016508    -0.72300
O158        O  0.22522766  0.27445830  0.65857544    -0.72300
O159        O  0.28256223  0.30360397  0.66124085    -0.72300
O160        O  0.28313738  0.21669825  0.66385800    -0.72300
O161        O  0.28553241  0.26056966  0.60429188    -0.72300
O162        O  0.28021097  0.25986224  0.72070931    -0.72400
V163        V  0.22664398  0.23170406  0.65936030     1.35200
V164        V  0.28179278  0.25960598  0.66245108     1.35200
C165        C  0.25058001  0.24517252  0.73899935     0.77000
C166        C  0.25762592  0.24661784  0.58291335     0.77000
C167        C  0.25454302  0.18733857  0.66237312     0.76900
C168        C  0.25367975  0.30389248  0.65968781     0.76900
C169        C  0.22376624  0.37253544  0.65521298    -0.09600
C170        C  0.25510263  0.40376542  0.66559862     0.06600
C171        C  0.28612629  0.40180860  0.67285649    -0.03400
C172        C  0.28489420  0.36914907  0.67023396    -0.07800
C173        C  0.25342963  0.33786991  0.66026821     0.05700
C174        C  0.22263191  0.33998109  0.65215947    -0.02900
Br175      Br  0.17818231  0.30030832  0.63522064    -0.02600
H176        H  0.19978937  0.37337741  0.64883202     0.09600
H177        H  0.30885528  0.36826359  0.67657555     0.07600
Br178      Br  0.33111369  0.44188629  0.68747651    -0.03000
C179        C  0.28228057  0.11726751  0.65737710    -0.09600
C180        C  0.25122604  0.08685122  0.67058874     0.06600
C181        C  0.22123595  0.08986749  0.68049201    -0.03400
C182        C  0.22307236  0.12277108  0.67721916    -0.07800
C183        C  0.25422398  0.15318961  0.66422326     0.05700
C184        C  0.28403188  0.15005981  0.65387302    -0.02900
Br185      Br  0.32744185  0.18853414  0.63254496    -0.02600
H186        H  0.30541695  0.11552134  0.64884945     0.09600
H187        H  0.19993234  0.12460899  0.68549338     0.07600
Br188      Br  0.17722186  0.05096227  0.69992015    -0.03000
C189        C  0.02711887  0.37432533  0.68205337    -0.09600
C190        C  0.99777731  0.34426120  0.66537510     0.06600
C191        C  0.47027956  0.34795802  0.64751984    -0.03400
C192        C  0.47245075  0.38109790  0.64716991    -0.07800
C193        C  0.00165651  0.41112111  0.66413817     0.05700
C194        C  0.02923830  0.40744816  0.68183594    -0.02900
Br195      Br  0.06943083  0.44563331  0.70870143    -0.02600
H196        H  0.04831860  0.37194231  0.69622441     0.09600
H197        H  0.45118948  0.38343328  0.63309643     0.07600
Br198      Br  0.42987957  0.30958719  0.62116003    -0.03000
C199        C  0.46892620  0.09468941  0.68124159    -0.09600
C200        C  0.99939437  0.09508414  0.66623506     0.06600
C201        C  0.02830832  0.12769150  0.65298994    -0.03400
C202        C  0.02645683  0.15875397  0.65583236    -0.07800
C203        C  0.99610090  0.15842067  0.67105616     0.05700
C204        C  0.46697475  0.12575898  0.68377222    -0.02900
Br205      Br  0.42430708  0.12147450  0.70660850    -0.02600
H206        H  0.44646759  0.07001380  0.69172940     0.09600
H207        H  0.04885506  0.18338563  0.64512701     0.07600
Br208      Br  0.07039849  0.13194774  0.62839370    -0.03000
C209        C  0.21750107  0.22529701  0.84980724    -0.09600
C210        C  0.24862054  0.24766019  0.87132502     0.06600
C211        C  0.27994741  0.26947940  0.84926043    -0.03400
C212        C  0.27981905  0.26809826  0.80641646    -0.07800
C213        C  0.24870786  0.24563570  0.78452842     0.05700
C214        C  0.21703362  0.22441755  0.80689726    -0.02900
Br215      Br  0.17203513  0.19322437  0.78189582    -0.02600
H216        H  0.19322680  0.20863341  0.86654082     0.09600
H217        H  0.30436314  0.28477267  0.79019940     0.07600
Br218      Br  0.32424307  0.30009766  0.87589862    -0.03000
C219        C  0.22619163  0.46235812  0.81426887    -0.09600
C220        C  0.25112616  0.49309408  0.79361492     0.06600
C221        C  0.27518402  0.02382581  0.81685194    -0.03400
C222        C  0.27359938  0.02262156  0.85964000    -0.07800
C223        C  0.24863624  0.49096664  0.88024565     0.05700
C224        C  0.22477000  0.46092711  0.85714094    -0.02900
Br225      Br  0.18846343  0.41757773  0.88136568    -0.02600
H226        H  0.20778726  0.43922131  0.79694422     0.09600
H227        H  0.29148741  0.04624689  0.87657790     0.07600
Br228      Br  0.30799261  0.06829985  0.79171894    -0.03000
C229        C  0.37716847  0.22083096  0.01018391    -0.09600
C230        C  0.40788062  0.25245433  0.99877581     0.06600
C231        C  0.40428195  0.28123203  0.98487152    -0.03400
C232        C  0.37073021  0.27801953  0.98336924    -0.07800
C233        C  0.34009845  0.24653678  0.99515353     0.05700
C234        C  0.34361160  0.21758687  0.00854441    -0.02900
Br235      Br  0.30445334  0.17338950  0.02702364    -0.02600
H236        H  0.37919682  0.19837439  0.02102135     0.09600
H237        H  0.36861485  0.30043058  0.97253833     0.07600
Br238      Br  0.44335154  0.32527012  0.96584425    -0.03000
C239        C  0.15689144  0.27893791  0.01081087    -0.09600
C240        C  0.15538083  0.24727877  0.99831366     0.06600
C241        C  0.12197357  0.21774879  0.98887577    -0.03400
C242        C  0.09147937  0.22065857  0.99155727    -0.07800
C243        C  0.09300809  0.25242664  0.00364869     0.05700
C244        C  0.12633479  0.28174670  0.01381634    -0.02900
Br245      Br  0.13238559  0.32594809  0.03381236    -0.02600
H246        H  0.18212131  0.30177324  0.01895398     0.09600
H247        H  0.06627348  0.19777078  0.98347375     0.07600
Br248      Br  0.11560055  0.17295015  0.97057777    -0.03000
C249        C  0.46837585  0.23245407  0.86071478    -0.09600
C250        C  0.00072678  0.25408434  0.88037684     0.06600
C251        C  0.03070844  0.27672216  0.85672188    -0.03400
C252        C  0.02834616  0.27584569  0.81395751    -0.07800
C253        C  0.49607735  0.25373309  0.79386886     0.05700
C254        C  0.46548605  0.23276814  0.81801843    -0.02900
Br255      Br  0.41865554  0.20444391  0.79588690    -0.02600
H256        H  0.44490987  0.21595590  0.87882062     0.09600
H257        H  0.05199001  0.29278010  0.79638142     0.07600
Br258      Br  0.07584668  0.30860274  0.88091767    -0.03000
C259        C  0.37055326  0.02411091  0.98316096    -0.09600
C260        C  0.34172852  0.49506857  0.00398273     0.06600
C261        C  0.34713614  0.46918223  0.02339849    -0.03400
C262        C  0.38018409  0.47132364  0.02076115    -0.07800
C263        C  0.40844508  0.49899526  0.99924815     0.05700
C264        C  0.40362214  0.02623121  0.98038633    -0.02900
Br265      Br  0.43940508  0.06380610  0.94762831    -0.02600
H266        H  0.36682932  0.04414591  0.96792428     0.09600
H267        H  0.38397001  0.45143106  0.03626572     0.07600
Br268      Br  0.31145121  0.43143985  0.05597378    -0.03000
C269        C  0.09144129  0.46504551  0.99463310    -0.09600
C270        C  0.09314110  0.49820882  0.99495893     0.06600
C271        C  0.12729094  0.03022782  0.99881634    -0.03400
C272        C  0.15776513  0.02729679  0.00064220    -0.07800
C273        C  0.15575394  0.49322454  0.99776347     0.05700
C274        C  0.12206783  0.46221949  0.99530114    -0.02900
Br275      Br  0.11521021  0.41510968  0.99136421    -0.02600
H276        H  0.06594604  0.44081455  0.99367032     0.09600
H277        H  0.18313840  0.05144614  0.00371809     0.07600
Br278      Br  0.13469362  0.07763685  0.99923347    -0.03000
C279        C  0.02561138  0.03202730  0.80868699    -0.09600
C280        C  0.00087218  0.00156481  0.78773322     0.06600
C281        C  0.47749968  0.47076881  0.80920597    -0.03400
C282        C  0.47836681  0.47134126  0.85204162    -0.07800
C283        C  0.00252553  0.00274352  0.87434989     0.05700
C284        C  0.02655668  0.03307135  0.85150985    -0.02900
Br285      Br  0.06216206  0.07669548  0.87578186    -0.02600
H286        H  0.04411322  0.05538213  0.79160306     0.09600
H287        H  0.46005675  0.44755795  0.86857312     0.07600
Br288      Br  0.44493090  0.42683783  0.78308076    -0.03000
C289        C  0.28620427  0.25105407  0.47153451    -0.09600
C290        C  0.25821531  0.25176060  0.45100440     0.06600
C291        C  0.23020678  0.25041750  0.47425055    -0.03400
C292        C  0.23079671  0.24866819  0.51695672    -0.07800
C293        C  0.25887439  0.24829433  0.53758783     0.05700
C294        C  0.28683455  0.24943366  0.51440659    -0.02900
Br295      Br  0.32546752  0.24667377  0.53886767    -0.02600
H296        H  0.30771327  0.25169862  0.45414962     0.09600
H297        H  0.20903838  0.24764778  0.53418067     0.07600
Br298      Br  0.18907042  0.24850809  0.45003602    -0.03000
C299        C  0.25279974  0.22152862  0.18392057    -0.09600
C300        C  0.25104145  0.24900870  0.20441314     0.06600
C301        C  0.24718239  0.27422344  0.18105643    -0.03400
C302        C  0.24584677  0.27188392  0.13833486    -0.07800
C303        C  0.24773303  0.24454558  0.11786271     0.05700
C304        C  0.25090472  0.21891794  0.14113186    -0.02900
Br305      Br  0.25469214  0.18082983  0.11675630    -0.02600
H306        H  0.25556186  0.20182580  0.20126903     0.09600
H307        H  0.24329229  0.29169188  0.12093985     0.07600
Br308      Br  0.24527961  0.31365766  0.20471967    -0.03000
C309        C  0.22691503  0.00456516  0.52841940    -0.09600
C310        C  0.25249056  0.49948038  0.54725610     0.06600
C311        C  0.27813600  0.49737261  0.52293698    -0.03400
C312        C  0.27697631  0.49961842  0.48026107    -0.07800
C313        C  0.25068035  0.50409967  0.46076120     0.05700
C314        C  0.22581922  0.00703027  0.48570164    -0.02900
Br315      Br  0.18805113  0.01260713  0.46348625    -0.02600
H316        H  0.20731295  0.00667911  0.54680226     0.09600
H317        H  0.29674587  0.49755265  0.46218039     0.07600
Br318      Br  0.31392316  0.48894433  0.54575422    -0.03000
C319        C  0.24932832  0.02616705  0.14700222    -0.09600
C320        C  0.24711237  0.49558073  0.12726985     0.06600
C321        C  0.24298692  0.46705908  0.15204925    -0.03400
C322        C  0.24312528  0.46989571  0.19475642    -0.07800
C323        C  0.24697159  0.50051225  0.21380368     0.05700
C324        C  0.24889586  0.02847935  0.18979231    -0.02900
Br325      Br  0.25324680  0.07111355  0.21270153    -0.02600
H326        H  0.25101130  0.04776553  0.12878159     0.09600
H327        H  0.24015611  0.44789764  0.21327938     0.07600
Br328      Br  0.23874411  0.42405509  0.13041219    -0.03000
C329        C  0.02429222  0.25344386  0.48038248    -0.09600
C330        C  0.99462526  0.25055946  0.45994271     0.06600
C331        C  0.46519775  0.24566868  0.48316451    -0.03400
C332        C  0.46639260  0.24493034  0.52599183    -0.07800
C333        C  0.49653913  0.24898326  0.54660865     0.05700
C334        C  0.02558645  0.25277358  0.52320269    -0.02900
Br335      Br  0.06732295  0.25573485  0.54703809    -0.02600
H336        H  0.04686903  0.25662496  0.46291629     0.09600
H337        H  0.44361547  0.24145219  0.54324461     0.07600
Br338      Br  0.42184330  0.23771026  0.45840738    -0.03000
C339        C  0.40465578  0.13199768  0.34643201    -0.09600
C340        C  0.40481747  0.16249141  0.33214901     0.06600
C341        C  0.37284262  0.15931489  0.31739660    -0.03400
C342        C  0.34155466  0.12641452  0.31890936    -0.07800
C343        C  0.34133621  0.09603611  0.33397549     0.05700
C344        C  0.37359590  0.09907752  0.34736750    -0.02900
Br345      Br  0.37753733  0.06016562  0.36921056    -0.02600
H346        H  0.42889684  0.13379148  0.35774306     0.09600
H347        H  0.31727083  0.12448931  0.30753040     0.07600
Br348      Br  0.37011065  0.19791065  0.29245715    -0.03000
C349        C  0.12548980  0.41125804  0.32821814    -0.09600
C350        C  0.15641283  0.41092087  0.33965736     0.06600
C351        C  0.15367577  0.37816478  0.35056071    -0.03400
C352        C  0.12060409  0.34711368  0.35010735    -0.07800
C353        C  0.08970563  0.34749823  0.33868883     0.05700
C354        C  0.09252935  0.38014314  0.32721189    -0.02900
Br355      Br  0.05335124  0.38441433  0.30712518    -0.02600
H356        H  0.12696845  0.43588584  0.31901902     0.09600
H357        H  0.11909355  0.32240328  0.35899181     0.07600
Br358      Br  0.19333413  0.37329850  0.36735176    -0.03000
C359        C  0.50044015  0.28469084  0.19171453    -0.09600
C360        C  0.99724654  0.25545443  0.21349507     0.06600
C361        C  0.99345784  0.22581500  0.19157302    -0.03400
C362        C  0.99407338  0.22635340  0.14876359    -0.07800
C363        C  0.99835453  0.25597697  0.12678469     0.05700
C364        C  0.50108254  0.28529484  0.14879319    -0.02900
Br365      Br  0.50420666  0.32645362  0.12284690    -0.02600
H366        H  0.50283876  0.30739097  0.20817074     0.09600
H367        H  0.99135785  0.20340903  0.13259367     0.07600
Br368      Br  0.98520408  0.18282706  0.21795088    -0.03000
C369        C  0.47312279  0.99927661  0.47502094    -0.09600
C370        C  0.00398551  0.50554888  0.45364186     0.06600
C371        C  0.03335791  0.51008783  0.47664743    -0.03400
C372        C  0.03186760  0.50982664  0.51950929    -0.07800
C373        C  0.00088927  0.00385497  0.54116758     0.05700
C374        C  0.47110749  0.99806409  0.51779187    -0.02900
Br375      Br  0.42683302  0.98897009  0.54129250    -0.02600
H376        H  0.45017597  0.99497660  0.45757169     0.09600
H377        H  0.05478552  0.51364196  0.53660220     0.07600
Br378      Br  0.07681627  0.51833229  0.45166273    -0.03000
C379        C  0.41232823  0.38153324  0.33142391    -0.09600
C380        C  0.41060952  0.41288886  0.32873820     0.06600
C381        C  0.37699645  0.41005667  0.32408758    -0.03400
C382        C  0.34653081  0.37657012  0.32246095    -0.07800
C383        C  0.34826237  0.34522397  0.32557570     0.05700
C384        C  0.38189336  0.34809098  0.32995757    -0.02900
Br385      Br  0.38917872  0.30817734  0.33512985    -0.02600
H386        H  0.43766823  0.38285187  0.33494741     0.09600
H387        H  0.32115260  0.37518323  0.31894197     0.07600
Br388      Br  0.36979411  0.45007199  0.31969632    -0.03000
C389        C  0.12644404  0.09681644  0.31744703    -0.09600
C390        C  0.09629173  0.09748529  0.33162321     0.06600
C391        C  0.10018249  0.12992241  0.34576357    -0.03400
C392        C  0.13354325  0.16051922  0.34508593    -0.07800
C393        C  0.16364296  0.15986696  0.33071044     0.05700
C394        C  0.15979990  0.12741799  0.31675480    -0.02900
Br395      Br  0.19811908  0.12276341  0.29435229    -0.02600
H396        H  0.12406520  0.07231547  0.30617748     0.09600
H397        H  0.13594946  0.18504932  0.35630463     0.07600
Br398      Br  0.06190510  0.13467866  0.36807451    -0.03000
C399        C  0.49884595  0.47430847  0.18759391    -0.09600
C400        C  0.00153589  0.00477294  0.20802186     0.06600
C401        C  0.00351292  0.03268036  0.18403933    -0.03400
C402        C  0.00315649  0.03033517  0.14125641    -0.07800
C403        C  0.00084197  0.00056554  0.12139321     0.05700
C404        C  0.49840652  0.47169604  0.14483688    -0.02900
Br405      Br  0.49722248  0.43040173  0.12216529    -0.02600
H406        H  0.49741234  0.45277399  0.20574564     0.09600
H407        H  0.00486591  0.05212658  0.12340097     0.07600
Br408      Br  0.00922164  0.07574205  0.20739856    -0.03000
O409        O  0.47369618  0.94794165  0.33221715    -0.72200
O410        O  0.06082248  0.53450364  0.32876463    -0.72500
O411        O  0.01885521  0.99195832  0.38906279    -0.72300
O412        O  0.01593209  0.99042346  0.27290282    -0.72300
O413        O  0.48915807  0.52105202  0.27247775    -0.72300
O414        O  0.48838715  0.51921033  0.38895486    -0.72300
O415        O  0.03251943  0.56361927  0.33159133    -0.72300
O416        O  0.44516883  0.97681528  0.33068385    -0.72400
V417        V  0.01679864  0.99177710  0.33096975     1.35200
V418        V  0.48933178  0.51962940  0.33072931     1.35200
C419        C  0.44441908  0.94742378  0.33097033     0.77000
C420        C  0.06167128  0.56392572  0.33049503     0.77000
C421        C  0.00401887  0.00565063  0.40932280     0.76900
C422        C  0.00226931  0.50551157  0.25240625     0.76900
O423        O  0.05514185  0.78401182  0.33852498    -0.72200
O424        O  0.46783796  0.69711640  0.33564712    -0.72500
O425        O  0.01223937  0.74172285  0.27933527    -0.72300
O426        O  0.01072756  0.73895945  0.39522616    -0.72300
O427        O  0.48111460  0.76691002  0.39622410    -0.72300
O428        O  0.48431392  0.77131736  0.27958640    -0.72300
O429        O  0.43921731  0.72599876  0.33538178    -0.72300
O430        O  0.02643056  0.81275883  0.34026198    -0.72400
V431        V  0.01094901  0.74105424  0.33723521     1.35200
V432        V  0.48338431  0.76878563  0.33791289     1.35200
C433        C  0.05571618  0.81334699  0.33948511     0.77000
C434        C  0.43859825  0.69670303  0.33438923     0.77000
C435        C  0.99796843  0.75620730  0.25958826     0.76900
C436        C  0.99524732  0.75194657  0.41554679     0.76900
O437        O  0.27805676  0.56157469  0.33596600    -0.72200
O438        O  0.19115092  0.97404165  0.33903711    -0.72500
O439        O  0.23522547  0.51846607  0.39546292    -0.72300
O440        O  0.23397185  0.51722780  0.27873350    -0.72300
O441        O  0.26191350  0.98763180  0.27939848    -0.72300
O442        O  0.26494138  0.99039060  0.39546382    -0.72300
O443        O  0.22003530  0.94546595  0.33947166    -0.72300
O444        O  0.30672074  0.53276165  0.33501058    -0.72400
V445        V  0.23511622  0.51733935  0.33707552     1.35200
V446        V  0.26286923  0.98963249  0.33741826     1.35200
C447        C  0.30733364  0.56207503  0.33516364     0.77000
C448        C  0.19070193  0.94475264  0.33996093     0.77000
C449        C  0.25009158  0.50448959  0.41525354     0.76900
C450        C  0.24773355  0.50209156  0.25904665     0.76900
O451        O  0.22712187  0.69410864  0.32916765    -0.72200
O452        O  0.31399151  0.78152612  0.32604873    -0.72500
O453        O  0.27184376  0.73848492  0.38581588    -0.72300
O454        O  0.26900515  0.73674375  0.26935808    -0.72300
O455        O  0.23992396  0.76513921  0.27042816    -0.72300
O456        O  0.24317321  0.76727820  0.38644184    -0.72300
O457        O  0.28502309  0.80996193  0.32659879    -0.72300
O458        O  0.19837778  0.72282816  0.33023210    -0.72400
V459        V  0.27001848  0.73831036  0.32760794     1.35200
V460        V  0.24224681  0.76578661  0.32839330     1.35200
C461        C  0.19784101  0.69353404  0.32994082     0.77000
C462        C  0.31444785  0.81078312  0.32613410     0.77000
C463        C  0.25737956  0.75264066  0.40607404     0.76900
C464        C  0.25368870  0.75047406  0.24999513     0.76900
O465        O  0.47193749  0.52851826  0.99701482    -0.72200
O466        O  0.05898140  0.52792344  0.99776452    -0.72500
O467        O  0.01640558  0.52931959  0.93958172    -0.72300
O468        O  0.01479346  0.52784462  0.05541936    -0.72300
O469        O  0.48763803  0.97151830  0.05582307    -0.72300
O470        O  0.48667742  0.97287076  0.93918304    -0.72300
O471        O  0.03039060  0.97161296  0.99604876    -0.72300
O472        O  0.44373666  0.97214078  0.99879232    -0.72400
V473        V  0.01499044  0.52728546  0.99744955     1.35200
V474        V  0.48765286  0.97312354  0.99748801     1.35200
C475        C  0.44317078  0.00086640  0.99819664     0.77000
C476        C  0.05983002  0.00017001  0.99688835     0.77000
C477        C  0.00172195  0.50108338  0.91898173     0.76900
C478        C  0.00093933  0.49900701  0.07513923     0.76900
O479        O  0.01780778  0.78253444  0.94607569    -0.72200
O480        O  0.01322619  0.78325662  0.06187170    -0.72500
O481        O  0.05919163  0.78251192  0.00701805    -0.72300
O482        O  0.47164142  0.78223843  0.00070788    -0.72300
O483        O  0.44329645  0.72486508  0.00419251    -0.72300
O484        O  0.03017342  0.72506107  0.00477258    -0.72300
O485        O  0.48669819  0.72580582  0.06293980    -0.72300
O486        O  0.48665661  0.72499391  0.94625288    -0.72400
V487        V  0.01496566  0.78154800  0.00399121     1.35200
V488        V  0.48735197  0.72628214  0.00458688     1.35200
C489        C  0.00228055  0.75381720  0.92637678     0.77000
C490        C  0.99908188  0.75481563  0.08226945     0.77000
C491        C  0.05956589  0.75361324  0.00618493     0.76900
C492        C  0.44241947  0.75333513  0.00131613     0.76900
O493        O  0.27857119  0.96598882  0.00654876    -0.72200
O494        O  0.19069789  0.96494263  0.00293083    -0.72500
O495        O  0.23531031  0.96405733  0.94688938    -0.72300
O496        O  0.23377114  0.96644053  0.06302437    -0.72300
O497        O  0.26224323  0.52292289  0.06111744    -0.72300
O498        O  0.26247537  0.52067980  0.94476063    -0.72300
O499        O  0.21878991  0.52142936  0.00175497    -0.72300
O500        O  0.30624797  0.52250390  0.00347485    -0.72400
V501        V  0.23512843  0.96644887  0.00489426     1.35200
V502        V  0.26190558  0.52076271  0.00290618     1.35200
C503        C  0.30762933  0.99500141  0.00535938     0.77000
C504        C  0.18993220  0.99357828  0.00110719     0.77000
C505        C  0.24909141  0.99227968  0.92603222     0.76900
C506        C  0.24803349  0.99551007  0.08218840     0.76900
O507        O  0.30509025  0.77429560  0.99620089    -0.72200
O508        O  0.21859393  0.77524280  0.99550630    -0.72500
O509        O  0.26081096  0.77338742  0.05369743    -0.72300
O510        O  0.26313947  0.77606882  0.93749211    -0.72300
O511        O  0.23175345  0.71856319  0.93600833    -0.72300
O512        O  0.23382761  0.71587316  0.05240896    -0.72300
O513        O  0.18939706  0.71775972  0.99664788    -0.72300
O514        O  0.27626965  0.71692155  0.99210097    -0.72400
V515        V  0.26130885  0.77361514  0.99564218     1.35200
V516        V  0.23332401  0.71834238  0.99423150     1.35200
C517        C  0.30559130  0.74554891  0.99439560     0.77000
C518        C  0.18914250  0.74669001  0.99679212     0.77000
C519        C  0.24754269  0.74427743  0.07290102     0.76900
C520        C  0.24783011  0.74773950  0.91693311     0.76900
O521        O  0.03006674  0.97447013  0.66516873    -0.72200
O522        O  0.02934317  0.56131163  0.66350411    -0.72500
O523        O  0.02988287  0.51825525  0.72200531    -0.72300
O524        O  0.02994374  0.51772554  0.60559818    -0.72300
O525        O  0.47215562  0.98963783  0.60673228    -0.72300
O526        O  0.47204222  0.98723463  0.72283623    -0.72300
O527        O  0.47193261  0.53206029  0.66571737    -0.72300
O528        O  0.47262611  0.94529642  0.66337176    -0.72400
V529        V  0.02882452  0.51744362  0.66383498     1.35200
V530        V  0.47320912  0.98910741  0.66477332     1.35200
C531        C  0.00150293  0.94504028  0.66453493     0.77000
C532        C  0.00047370  0.56156272  0.66479320     0.77000
C533        C  0.00109556  0.50215002  0.74176679     0.76900
C534        C  0.00115971  0.50410694  0.58579286     0.76900
O535        O  0.46799892  0.78066525  0.66892190    -0.72200
O536        O  0.46739191  0.69313196  0.67253690    -0.72500
O537        O  0.46749655  0.73819275  0.72906847    -0.72300
O538        O  0.46781895  0.73565374  0.61273648    -0.72300
O539        O  0.02527013  0.76390156  0.61285744    -0.72300
O540        O  0.02487426  0.76685118  0.72917904    -0.72300
O541        O  0.02484110  0.72169616  0.67289101    -0.72300
O542        O  0.02546963  0.80903008  0.66885186    -0.72400
V543        V  0.46877313  0.73745280  0.67088315     1.35200
V544        V  0.02399840  0.76480610  0.67100160     1.35200
C545        C  0.99686322  0.80980700  0.66778475     0.77000
C546        C  0.99604926  0.69243041  0.67289389     0.77000
C547        C  0.49608591  0.75299755  0.74913978     0.76900
C548        C  0.49661934  0.74923026  0.59286847     0.76900
O549        O  0.28039075  0.50922216  0.72875068    -0.72200
O550        O  0.28107554  0.51066589  0.61243117    -0.72500
O551        O  0.27931139  0.55251972  0.67123263    -0.72300
O552        O  0.28243566  0.96699890  0.67015611    -0.72300
O553        O  0.22509091  0.93728901  0.66779903    -0.72300
O554        O  0.22189049  0.52261664  0.67289387    -0.72300
O555        O  0.22406175  0.98267374  0.61256780    -0.72300
O556        O  0.22370644  0.97800269  0.72881930    -0.72400
V557        V  0.27963655  0.50924879  0.67059643     1.35200
V558        V  0.22501824  0.98081813  0.67067723     1.35200
C559        C  0.25236371  0.99376408  0.74873029     0.77000
C560        C  0.25291315  0.99735130  0.59280001     0.77000
C561        C  0.25019015  0.55229048  0.67222074     0.76900
C562        C  0.25420811  0.93740453  0.66818715     0.76900
O563        O  0.22190526  0.73016138  0.71798650    -0.72200
O564        O  0.22612276  0.73123094  0.60187375    -0.72500
O565        O  0.22415136  0.68700750  0.66079818    -0.72300
O566        O  0.22394204  0.77399467  0.65927141    -0.72300
O567        O  0.28132327  0.80290250  0.66069923    -0.72300
O568        O  0.28151549  0.71585924  0.66454452    -0.72300
O569        O  0.28361458  0.75905100  0.60437383    -0.72300
O570        O  0.27920671  0.75982416  0.72081565    -0.72400
V571        V  0.22515868  0.73110187  0.65999259     1.35200
V572        V  0.28033802  0.75882786  0.66254239     1.35200
C573        C  0.24970579  0.74521014  0.73939063     0.77000
C574        C  0.25553941  0.74540858  0.58328985     0.77000
C575        C  0.25289107  0.68653261  0.66309855     0.76900
C576        C  0.25251617  0.80335786  0.65968331     0.76900
C577        C  0.22337521  0.87258915  0.65501810    -0.09600
C578        C  0.25480490  0.90363404  0.66569159     0.06600
C579        C  0.28563584  0.90136506  0.67305092    -0.03400
C580        C  0.28412818  0.86858841  0.67031312    -0.07800
C581        C  0.25255927  0.83748046  0.66017645     0.05700
C582        C  0.22196448  0.83989879  0.65189835    -0.02900
Br583      Br  0.17749706  0.80045318  0.63461688    -0.02600
H584        H  0.19955223  0.87368439  0.64850204     0.09600
H585        H  0.30794167  0.86746054  0.67678301     0.07600
Br586      Br  0.33069237  0.94115224  0.68806933    -0.03000
C587        C  0.28047408  0.61642472  0.65639445    -0.09600
C588        C  0.24995645  0.58618952  0.67093935     0.06600
C589        C  0.22041325  0.58933822  0.68271010    -0.03400
C590        C  0.22201415  0.62216702  0.67947298    -0.07800
C591        C  0.25262768  0.65240073  0.66498867     0.05700
C592        C  0.28210490  0.64916520  0.65324083    -0.02900
Br593      Br  0.32497775  0.68744145  0.63070682    -0.02600
H594        H  0.30329223  0.61457490  0.64663184     0.09600
H595        H  0.19922800  0.62414893  0.68906376     0.07600
Br596      Br  0.17764630  0.55075611  0.70512098    -0.03000
C597        C  0.02733677  0.87440523  0.68170260    -0.09600
C598        C  0.99761464  0.84414981  0.66594938     0.06600
C599        C  0.46970177  0.84765370  0.64898558    -0.03400
C600        C  0.47180921  0.88076652  0.64874638    -0.07800
C601        C  0.00136814  0.91096366  0.66489951     0.05700
C602        C  0.02942240  0.90750515  0.68154278    -0.02900
Br603      Br  0.07037332  0.94597558  0.70696337    -0.02600
H604        H  0.04890563  0.87221073  0.69511243     0.09600
H605        H  0.45020445  0.88293360  0.63539777     0.07600
Br606      Br  0.42874868  0.80905860  0.62372061    -0.03000
C607        C  0.46941506  0.59482899  0.68166029    -0.09600
C608        C  0.99976551  0.59528064  0.66612470     0.06600
C609        C  0.02856744  0.62793602  0.65281040    -0.03400
C610        C  0.02669823  0.65897223  0.65600463    -0.07800
C611        C  0.99644358  0.65856783  0.67170128     0.05700
C612        C  0.46746165  0.62587986  0.68458765    -0.02900
Br613      Br  0.42504541  0.62157505  0.70822883    -0.02600
H614        H  0.44706527  0.57012530  0.69226993     0.09600
H615        H  0.04898571  0.68363755  0.64518709     0.07600
Br616      Br  0.07050626  0.63229115  0.62767330    -0.03000
C617        C  0.21709583  0.72657100  0.85041559    -0.09600
C618        C  0.24846559  0.74847233  0.87172703     0.06600
C619        C  0.27979329  0.76988996  0.84946638    -0.03400
C620        C  0.27944940  0.76831183  0.80660833    -0.07800
C621        C  0.24809781  0.74613073  0.78493086     0.05700
C622        C  0.21639087  0.72559563  0.80752826    -0.02900
Br623      Br  0.17094326  0.69534260  0.78294541    -0.02600
H624        H  0.19280125  0.71033483  0.86731271     0.09600
H625        H  0.30400557  0.78457135  0.79022386     0.07600
Br626      Br  0.32430018  0.80019149  0.87586322    -0.03000
C627        C  0.22761592  0.96263107  0.81461780    -0.09600
C628        C  0.25205859  0.99357780  0.79393881     0.06600
C629        C  0.27457955  0.52317663  0.81655945    -0.03400
C630        C  0.27314050  0.52187738  0.85934193    -0.07800
C631        C  0.24943216  0.99157196  0.88059352     0.05700
C632        C  0.22622964  0.96119751  0.85748873    -0.02900
Br633      Br  0.19109747  0.91716344  0.88161998    -0.02600
H634        H  0.20962725  0.93928797  0.79729400     0.09600
H635        H  0.29137609  0.54531978  0.87631547     0.07600
Br636      Br  0.30756709  0.56763410  0.79151950    -0.03000
C637        C  0.37685329  0.72007131  0.00896717    -0.09600
C638        C  0.40774118  0.75203145  0.99883187     0.06600
C639        C  0.40429371  0.78119512  0.98611959    -0.03400
C640        C  0.37075681  0.77798845  0.98443780    -0.07800
C641        C  0.33996531  0.74621395  0.99505772     0.05700
C642        C  0.34330650  0.71689001  0.00731486    -0.02900
Br643      Br  0.30392400  0.67224097  0.02433306    -0.02600
H644        H  0.37872264  0.69730392  0.01890191     0.09600
H645        H  0.36881109  0.80072473  0.97454206     0.07600
Br646      Br  0.44358507  0.82601271  0.96940631    -0.03000
C647        C  0.15661837  0.77819379  0.01530724    -0.09600
C648        C  0.15559314  0.74764881  0.99941847     0.06600
C649        C  0.12260734  0.71900238  0.98700345    -0.03400
C650        C  0.09203929  0.72174142  0.98992725    -0.07800
C651        C  0.09307933  0.75243148  0.00531474     0.05700
C652        C  0.12589908  0.78072147  0.01874686    -0.02900
Br653      Br  0.13064053  0.82261557  0.04431368    -0.02600
H654        H  0.18150941  0.80019024  0.02591824     0.09600
H655        H  0.06718999  0.69965293  0.97938246     0.07600
Br656      Br  0.11711255  0.67587057  0.96406841    -0.03000
C657        C  0.46857794  0.73337809  0.86169231    -0.09600
C658        C  0.00116595  0.75411091  0.88128160     0.06600
C659        C  0.03136701  0.77600436  0.85756199    -0.03400
C660        C  0.02893393  0.77520971  0.81479030    -0.07800
C661        C  0.49640530  0.75395730  0.79475069     0.05700
C662        C  0.46565596  0.73384239  0.81900244    -0.02900
Br663      Br  0.41855435  0.70712564  0.79707107    -0.02600
H664        H  0.44497100  0.71752587  0.87986486     0.09600
H665        H  0.05274493  0.79152023  0.79717913     0.07600
Br666      Br  0.07684466  0.80671377  0.88172736    -0.03000
C667        C  0.37002832  0.52276979  0.98245095    -0.09600
C668        C  0.34212426  0.99608158  0.00418645     0.06600
C669        C  0.34741326  0.96986760  0.02291602    -0.03400
C670        C  0.38049918  0.97213845  0.02038020    -0.07800
C671        C  0.40890793  0.00015571  0.99948151     0.05700
C672        C  0.40307011  0.52484333  0.97972379    -0.02900
Br673      Br  0.43873601  0.56206823  0.94649647    -0.02600
H674        H  0.36622358  0.54259179  0.96680685     0.09600
H675        H  0.38416983  0.95200425  0.03545430     0.07600
Br676      Br  0.31148883  0.93128128  0.05425687    -0.03000
C677        C  0.09202561  0.96632538  0.99235219    -0.09600
C678        C  0.09358292  0.99931359  0.99604892     0.06600
C679        C  0.12691394  0.52918374  0.99450851    -0.03400
C680        C  0.15744359  0.52634804  0.99662676    -0.07800
C681        C  0.15617470  0.99426983  0.99830796     0.05700
C682        C  0.12269919  0.96354839  0.99264561    -0.02900
Br683      Br  0.11644171  0.91717668  0.98303860    -0.02600
H684        H  0.06664743  0.94226079  0.98875217     0.09600
H685        H  0.18291770  0.55061544  0.99705598     0.07600
Br686      Br  0.13421158  0.57640184  0.98958149    -0.03000
C687        C  0.02543538  0.53181242  0.80807730    -0.09600
C688        C  0.00110530  0.50130563  0.78689136     0.06600
C689        C  0.47702988  0.97129852  0.81029206    -0.03400
C690        C  0.47812076  0.97208623  0.85311456    -0.07800
C691        C  0.00232523  0.50204852  0.87353121     0.05700
C692        C  0.02617085  0.53264131  0.85091161    -0.02900
Br693      Br  0.06124514  0.57639976  0.87547098    -0.02600
H694        H  0.04375835  0.55536764  0.79116644     0.09600
H695        H  0.45962775  0.94850860  0.86983872     0.07600
Br696      Br  0.44380544  0.92742039  0.78455778    -0.03000
C697        C  0.28171570  0.74549162  0.47203197    -0.09600
C698        C  0.25691705  0.75165078  0.45151417     0.06600
C699        C  0.23162880  0.75540279  0.47497725    -0.03400
C700        C  0.23170049  0.75295215  0.51769939    -0.07800
C701        C  0.25667323  0.74712985  0.53807040     0.05700
C702        C  0.28184862  0.74331139  0.51482586    -0.02900
Br703      Br  0.31554369  0.73277652  0.53928771    -0.02600
H704        H  0.30110241  0.74219769  0.45472797     0.09600
H705        H  0.21217276  0.75588397  0.53519622     0.07600
Br706      Br  0.19502764  0.76224957  0.45144194    -0.03000
C707        C  0.25375290  0.72164158  0.18418912    -0.09600
C708        C  0.25145116  0.74883710  0.20468575     0.06600
C709        C  0.24688365  0.77361849  0.18132054    -0.03400
C710        C  0.24536354  0.77114387  0.13863995    -0.07800
C711        C  0.24781516  0.74413709  0.11817282     0.05700
C712        C  0.25171147  0.71892736  0.14138560    -0.02900
Br713      Br  0.25638203  0.68142199  0.11679232    -0.02600
H714        H  0.25705424  0.70226455  0.20152769     0.09600
H715        H  0.24226305  0.79062762  0.12125016     0.07600
Br716      Br  0.24422040  0.81269875  0.20483010    -0.03000
C717        C  0.22617671  0.50394513  0.52798227    -0.09600
C718        C  0.25294048  0.99961822  0.54763517     0.06600
C719        C  0.27829511  0.99701997  0.52329916    -0.03400
C720        C  0.27709133  0.99919319  0.48062986    -0.07800
C721        C  0.25105970  0.00411962  0.46117393     0.05700
C722        C  0.22510965  0.50645300  0.48525273    -0.02900
Br723      Br  0.18691716  0.51124078  0.46290916    -0.02600
H724        H  0.20631484  0.50563555  0.54632605     0.09600
H725        H  0.29662061  0.99673365  0.46252710     0.07600
Br726      Br  0.31373416  0.98805631  0.54609827    -0.03000
C727        C  0.25120650  0.52632726  0.14648640    -0.09600
C728        C  0.24752309  0.99647681  0.12760880     0.06600
C729        C  0.24549215  0.96873181  0.15216143    -0.03400
C730        C  0.24541849  0.97125170  0.19487125    -0.07800
C731        C  0.24695509  0.00077978  0.21419069     0.05700
C732        C  0.25107465  0.52897732  0.18923997    -0.02900
Br733      Br  0.25908091  0.57304695  0.21202468    -0.02600
H734        H  0.25458450  0.54857153  0.12817135     0.09600
H735        H  0.24408874  0.94983365  0.21316479     0.07600
Br736      Br  0.24452053  0.92735204  0.13011753    -0.03000
C737        C  0.02425383  0.75305077  0.48123934    -0.09600
C738        C  0.99459296  0.75014087  0.46077550     0.06600
C739        C  0.46508654  0.74509678  0.48392908    -0.03400
C740        C  0.46626638  0.74444275  0.52676195    -0.07800
C741        C  0.49644983  0.74863131  0.54742330     0.05700
C742        C  0.02550779  0.75237951  0.52405907    -0.02900
Br743      Br  0.06717505  0.75522534  0.54795114    -0.02600
H744        H  0.04684879  0.75625343  0.46379309     0.09600
H745        H  0.44344877  0.74090138  0.54397568     0.07600
Br746      Br  0.42164563  0.73670313  0.45899944    -0.03000
C747        C  0.40455632  0.63199986  0.34691999    -0.09600
C748        C  0.40477420  0.66257888  0.33287611     0.06600
C749        C  0.37280749  0.65956014  0.31832965    -0.03400
C750        C  0.34152776  0.62664543  0.31949781    -0.07800
C751        C  0.34127619  0.59615265  0.33420980     0.05700
C752        C  0.37346967  0.59910881  0.34770594    -0.02900
Br753      Br  0.37724596  0.56013946  0.36966117    -0.02600
H754        H  0.42876675  0.63371280  0.35821309     0.09600
H755        H  0.31726651  0.62481910  0.30819486     0.07600
Br756      Br  0.37002522  0.69844119  0.29429280    -0.03000
C757        C  0.12574369  0.91091268  0.32834963    -0.09600
C758        C  0.15654351  0.91076097  0.34073017     0.06600
C759        C  0.15372103  0.87820020  0.35275166    -0.03400
C760        C  0.12067151  0.84709386  0.35225212    -0.07800
C761        C  0.08989944  0.84729090  0.33978981     0.05700
C762        C  0.09281926  0.87977343  0.32736914    -0.02900
Br763      Br  0.05384597  0.88374994  0.30597073    -0.02600
H764        H  0.12731594  0.93540235  0.31834849     0.09600
H765        H  0.11906069  0.82251665  0.36195898     0.07600
Br766      Br  0.19322804  0.87382327  0.37136431    -0.03000
C767        C  0.49710842  0.78292282  0.19243579    -0.09600
C768        C  0.99716482  0.75517098  0.21429315     0.06600
C769        C  0.99619496  0.72672566  0.19232909    -0.03400
C770        C  0.99646784  0.72714871  0.14952868    -0.07800
C771        C  0.99758979  0.75539651  0.12757982     0.05700
C772        C  0.49732257  0.78331549  0.14950264    -0.02900
Br773      Br  0.49538262  0.82185223  0.12320610    -0.02600
H774        H  0.49719335  0.80460271  0.20880630     0.09600
H775        H  0.99606894  0.70525372  0.13330607     0.07600
Br776      Br  0.99243497  0.68534221  0.21839458    -0.03000
C777        C  0.47354011  0.50042899  0.47426499    -0.09600
C778        C  0.00390809  0.00522441  0.45452226     0.06600
C779        C  0.03348052  0.01046503  0.47760961    -0.03400
C780        C  0.03185467  0.01009047  0.52046122    -0.07800
C781        C  0.00121750  0.50435376  0.54032278     0.05700
C782        C  0.47164387  0.49930501  0.51705091    -0.02900
Br783      Br  0.42784109  0.49138620  0.54076682    -0.02600
H784        H  0.45074260  0.49667994  0.45691622     0.09600
H785        H  0.05494508  0.01448656  0.53762230     0.07600
Br786      Br  0.07737107  0.01993474  0.45271483    -0.03000
C787        C  0.41224435  0.88161304  0.33245473    -0.09600
C788        C  0.41060326  0.91299267  0.32947255     0.06600
C789        C  0.37702752  0.91019142  0.32448334    -0.03400
C790        C  0.34652254  0.87671072  0.32286465    -0.07800
C791        C  0.34817754  0.84533686  0.32629245     0.05700
C792        C  0.38178193  0.84818522  0.33097920    -0.02900
Br793      Br  0.38901049  0.80826489  0.33653822    -0.02600
H794        H  0.43755073  0.88290241  0.33622807     0.09600
H795        H  0.32117723  0.87534877  0.31908355     0.07600
Br796      Br  0.36995686  0.95025557  0.31953247    -0.03000
C797        C  0.12657823  0.59658804  0.31833658    -0.09600
C798        C  0.09614758  0.59748003  0.33090855     0.06600
C799        C  0.09981313  0.63011593  0.34389614    -0.03400
C800        C  0.13318229  0.66069066  0.34344541    -0.07800
C801        C  0.16355493  0.65983308  0.33059093     0.05700
C802        C  0.15997592  0.62713496  0.31806543    -0.02900
Br803      Br  0.19876626  0.62186966  0.29855698    -0.02600
H804        H  0.12443231  0.57191302  0.30813293     0.09600
H805        H  0.13536153  0.68537697  0.35367500     0.07600
Br806      Br  0.06122974  0.63526565  0.36437363    -0.03000
C807        C  0.49933332  0.97508317  0.18825435    -0.09600
C808        C  0.00122717  0.50417747  0.20712668     0.06600
C809        C  0.00327715  0.53200232  0.18293809    -0.03400
C810        C  0.00284496  0.52942269  0.14019215    -0.07800
C811        C  0.00041975  0.49951365  0.12055560     0.05700
C812        C  0.49894710  0.97269432  0.14548160    -0.02900
Br813      Br  0.49798193  0.93159174  0.12252513    -0.02600
H814        H  0.49797874  0.95349884  0.20622897     0.09600
H815        H  0.00462534  0.55117196  0.12218257     0.07600
Br816      Br  0.00925925  0.57528264  0.20594639    -0.03000
O817        O  0.97367103  0.44789285  0.33140296    -0.72200
O818        O  0.56094398  0.03450930  0.32960120    -0.72500
O819        O  0.51872352  0.49200696  0.38820669    -0.72300
O820        O  0.51588639  0.49028051  0.27207856    -0.72300
O821        O  0.98936349  0.02134274  0.27350541    -0.72300
O822        O  0.98844936  0.01909756  0.38993993    -0.72300
O823        O  0.53268876  0.06367012  0.33275142    -0.72300
O824        O  0.94507705  0.47669933  0.32983116    -0.72400
V825        V  0.51671835  0.49174620  0.33012808     1.35200
V826        V  0.98946461  0.01971199  0.33173682     1.35200
C827        C  0.94437866  0.44733413  0.33017570     0.77000
C828        C  0.56182002  0.06394079  0.33144843     0.77000
C829        C  0.50395618  0.50579475  0.40841327     0.76900
C830        C  0.50244444  0.00583287  0.25332777     0.76900
O831        O  0.55500826  0.28424065  0.33713195    -0.72200
O832        O  0.96785689  0.19719969  0.33530630    -0.72500
O833        O  0.51181076  0.24144481  0.27844084    -0.72300
O834        O  0.51102301  0.23956773  0.39440434    -0.72300
O835        O  0.98070205  0.26678133  0.39528214    -0.72300
O836        O  0.98448059  0.27165135  0.27869794    -0.72300
O837        O  0.93913223  0.22596819  0.33412388    -0.72300
O838        O  0.52621338  0.31288001  0.33964587    -0.72400
V839        V  0.51089042  0.24121335  0.33637626     1.35200
V840        V  0.98323213  0.26884768  0.33698807     1.35200
C841        C  0.55552758  0.31354167  0.33843962     0.77000
C842        C  0.93858824  0.19669318  0.33360628     0.77000
C843        C  0.49788533  0.25629747  0.25872774     0.76900
C844        C  0.49522021  0.25224447  0.41468124     0.76900
O845        O  0.77809683  0.06145474  0.33617488    -0.72200
O846        O  0.69107903  0.47421765  0.33811018    -0.72500
O847        O  0.73557739  0.01850004  0.39597212    -0.72300
O848        O  0.73367800  0.01694316  0.27934439    -0.72300
O849        O  0.76193351  0.48762328  0.27905915    -0.72300
O850        O  0.76476231  0.49052856  0.39509270    -0.72300
O851        O  0.71992744  0.44562244  0.33900890    -0.72300
O852        O  0.80677494  0.03265761  0.33528770    -0.72400
V853        V  0.73515800  0.01719583  0.33763638     1.35200
V854        V  0.76279515  0.48974039  0.33705336     1.35200
C855        C  0.80738207  0.06196480  0.33527326     0.77000
C856        C  0.69059605  0.44491643  0.33912185     0.77000
C857        C  0.75040393  0.00445827  0.41568485     0.76900
C858        C  0.74759059  0.00205097  0.25949450     0.76900
O859        O  0.72719734  0.19405746  0.32894884    -0.72200
O860        O  0.81410282  0.28142827  0.32504627    -0.72500
O861        O  0.77262118  0.23852371  0.38517824    -0.72300
O862        O  0.76860319  0.23663119  0.26881881    -0.72300
O863        O  0.73976756  0.26527478  0.27037812    -0.72300
O864        O  0.74369252  0.26711111  0.38643128    -0.72300
O865        O  0.78515802  0.30988285  0.32645945    -0.72300
O866        O  0.69849955  0.22283417  0.33035164    -0.72400
V867        V  0.77013805  0.23824080  0.32701424     1.35200
V868        V  0.74239405  0.26575473  0.32836846     1.35200
C869        C  0.69793443  0.19353215  0.32993086     0.77000
C870        C  0.81456130  0.31068280  0.32550579     0.77000
C871        C  0.75824781  0.25261077  0.40568630     0.76900
C872        C  0.75334178  0.25053947  0.24971053     0.76900
O873        O  0.97241423  0.02968310  0.99751088    -0.72200
O874        O  0.55936643  0.02895777  0.99868628    -0.72500
O875        O  0.51690537  0.03028240  0.94028669    -0.72300
O876        O  0.51512062  0.02900079  0.05622015    -0.72300
O877        O  0.98729593  0.47036023  0.05499369    -0.72300
O878        O  0.98625139  0.47191515  0.93828234    -0.72300
O879        O  0.52998689  0.47057892  0.99503726    -0.72300
O880        O  0.94327757  0.47096889  0.99813677    -0.72400
V881        V  0.51542014  0.02837186  0.99819049     1.35200
V882        V  0.98724449  0.47203772  0.99663230     1.35200
C883        C  0.94269660  0.49968485  0.99775446     0.77000
C884        C  0.55942825  0.49912966  0.99582711     0.77000
C885        C  0.50213345  0.00197918  0.91979066     0.76900
C886        C  0.50129147  0.00016055  0.07596077     0.76900
O887        O  0.51710102  0.28261142  0.94506904    -0.72200
O888        O  0.51410014  0.28357555  0.06086978    -0.72500
O889        O  0.55915503  0.28254512  0.00500646    -0.72300
O890        O  0.97174658  0.28259688  0.00062141    -0.72300
O891        O  0.94332035  0.22517822  0.00336248    -0.72300
O892        O  0.53004715  0.22509725  0.00393257    -0.72300
O893        O  0.98670882  0.22612853  0.06213242    -0.72300
O894        O  0.98654937  0.22504504  0.94541554    -0.72400
V895        V  0.51501250  0.28173039  0.00297437     1.35200
V896        V  0.98729732  0.22646394  0.00375207     1.35200
C897        C  0.50181977  0.25384885  0.92546016     0.77000
C898        C  0.49968351  0.25521930  0.08140346     0.77000
C899        C  0.55948777  0.25363094  0.00459361     0.76900
C900        C  0.94251351  0.25370700  0.00097904     0.76900
O901        O  0.77818279  0.46501124  0.00627063    -0.72200
O902        O  0.69037686  0.46402549  0.00234658    -0.72500
O903        O  0.73503728  0.46323579  0.94641560    -0.72300
O904        O  0.73326031  0.46544906  0.06260619    -0.72300
O905        O  0.76244314  0.02393352  0.06148231    -0.72300
O906        O  0.76301399  0.02148992  0.94505331    -0.72300
O907        O  0.71917532  0.02235410  0.00183463    -0.72300
O908        O  0.80661753  0.02348310  0.00402412    -0.72400
V909        V  0.73476403  0.46551701  0.00445440     1.35200
V910        V  0.76226787  0.02169504  0.00323149     1.35200
C911        C  0.80724471  0.49401394  0.00500958     0.77000
C912        C  0.68956199  0.49263431  0.00077691     0.77000
C913        C  0.74856067  0.49151874  0.92565797     0.76900
C914        C  0.74764355  0.49450432  0.08181319     0.76900
O915        O  0.80505342  0.27441261  0.99585630    -0.72200
O916        O  0.71837317  0.27489237  0.99459308    -0.72500
O917        O  0.76063821  0.27359021  0.05315751    -0.72300
O918        O  0.76298035  0.27557297  0.93690472    -0.72300
O919        O  0.73181804  0.21805046  0.93581455    -0.72300
O920        O  0.73381363  0.21608711  0.05223358    -0.72300
O921        O  0.68933126  0.21744128  0.99618557    -0.72300
O922        O  0.77642282  0.21700506  0.99222789    -0.72400
V923        V  0.76116181  0.27348388  0.99505939     1.35200
V924        V  0.73335775  0.21820788  0.99405318     1.35200
C925        C  0.80567718  0.24572578  0.99436524     0.77000
C926        C  0.68895990  0.24630893  0.99599423     0.77000
C927        C  0.74744333  0.24457265  0.07256106     0.76900
C928        C  0.74780943  0.24712560  0.91653777     0.76900
O929        O  0.53043401  0.47463996  0.66436371    -0.72200
O930        O  0.52896269  0.06110438  0.66425046    -0.72500
O931        O  0.52954513  0.01812158  0.72279622    -0.72300
O932        O  0.52956327  0.01749113  0.60644460    -0.72300
O933        O  0.97253532  0.49007072  0.60589211    -0.72300
O934        O  0.97238630  0.48719175  0.72196399    -0.72300
O935        O  0.97154665  0.03185726  0.66624530    -0.72300
O936        O  0.97299087  0.44550021  0.66225714    -0.72400
V937        V  0.52845150  0.01725360  0.66464810     1.35200
V938        V  0.97358174  0.48930872  0.66392437     1.35200
C939        C  0.50185109  0.44522205  0.66362397     0.77000
C940        C  0.50009255  0.06135805  0.66529454     0.77000
C941        C  0.50077390  0.00218278  0.74260339     0.76900
C942        C  0.50078353  0.00370696  0.58663642     0.76900
O943        O  0.96805124  0.28078560  0.66809059    -0.72200
O944        O  0.96719645  0.19313213  0.67164797    -0.72500
O945        O  0.96731719  0.23817780  0.72816407    -0.72300
O946        O  0.96783932  0.23579356  0.61187174    -0.72300
O947        O  0.52529004  0.26400857  0.61210357    -0.72300
O948        O  0.52470274  0.26662894  0.72843107    -0.72300
O949        O  0.52464199  0.22156940  0.67202391    -0.72300
O950        O  0.52552859  0.30904847  0.66828662    -0.72400
V951        V  0.96870065  0.23751068  0.67000794     1.35200
V952        V  0.52392812  0.26475134  0.67025698     1.35200
C953        C  0.49696007  0.30989409  0.66713917     0.77000
C954        C  0.49580663  0.19234276  0.67205183     0.77000
C955        C  0.99586874  0.25282368  0.74829783     0.76900
C956        C  0.99666632  0.24942049  0.59205794     0.76900
O957        O  0.78115951  0.00958016  0.72898651    -0.72200
O958        O  0.78158441  0.01062374  0.61269367    -0.72500
O959        O  0.78030926  0.05287623  0.67123865    -0.72300
O960        O  0.78225396  0.46709594  0.66978614    -0.72300
O961        O  0.72492056  0.43699550  0.66746062    -0.72300
O962        O  0.72290674  0.02329750  0.67324675    -0.72300
O963        O  0.72354830  0.48219655  0.61215266    -0.72300
O964        O  0.72295470  0.47745432  0.72839677    -0.72400
V965        V  0.78025480  0.00939853  0.67083204     1.35200
V966        V  0.72440564  0.48032016  0.67027692     1.35200
C967        C  0.75154862  0.49329438  0.74839997     0.77000
C968        C  0.75242730  0.49716222  0.59244637     0.77000
C969        C  0.75129526  0.05286787  0.67222016     0.76900
C970        C  0.75417743  0.43737874  0.66790199     0.76900
O971        O  0.72292171  0.23052308  0.71732769    -0.72200
O972        O  0.72810046  0.23196668  0.60129622    -0.72500
O973        O  0.72578463  0.18775229  0.66016625    -0.72300
O974        O  0.72523060  0.27446069  0.65857511    -0.72300
O975        O  0.78256517  0.30360659  0.66124035    -0.72300
O976        O  0.78314038  0.21670092  0.66385869    -0.72300
O977        O  0.78553514  0.26057196  0.60429191    -0.72300
O978        O  0.78021403  0.25986518  0.72070953    -0.72400
V979        V  0.72664692  0.23170656  0.65936068     1.35200
V980        V  0.78179574  0.25960861  0.66245121     1.35200
C981        C  0.75058305  0.24517537  0.73899958     0.77000
C982        C  0.75762849  0.24662012  0.58291360     0.77000
C983        C  0.75454601  0.18734120  0.66237453     0.76900
C984        C  0.75368262  0.30389492  0.65968686     0.76900
C985        C  0.72376758  0.37253642  0.65520973    -0.09600
C986        C  0.75510381  0.40376703  0.66559408     0.06600
C987        C  0.78612812  0.40181130  0.67285139    -0.03400
C988        C  0.78489666  0.36915195  0.67023017    -0.07800
C989        C  0.75343216  0.33787215  0.66026586     0.05700
C990        C  0.72263397  0.33998242  0.65215709    -0.02900
Br991      Br  0.67818444  0.30030885  0.63521941    -0.02600
H992        H  0.69979034  0.37337754  0.64882918     0.09600
H993        H  0.80885811  0.36826712  0.67657164     0.07600
Br994      Br  0.83111546  0.44189023  0.68746912    -0.03000
C995        C  0.78228320  0.11726985  0.65738027    -0.09600
C996        C  0.75122856  0.08685372  0.67059199     0.06600
C997        C  0.72123882  0.08987039  0.68049587    -0.03400
C998        C  0.72307538  0.12277400  0.67722229    -0.07800
C999        C  0.75422695  0.15319228  0.66422576     0.05700
C1000       C  0.78403487  0.15006228  0.65387611    -0.02900
Br1001     Br  0.82744556  0.18853652  0.63254922    -0.02600
H1002       H  0.80541948  0.11552344  0.64885262     0.09600
H1003       H  0.69993540  0.12461217  0.68549657     0.07600
Br1004     Br  0.67722522  0.05096570  0.69992594    -0.03000
C1005       C  0.52712201  0.37432738  0.68204885    -0.09600
C1006       C  0.49777827  0.34426228  0.66537535     0.06600
C1007       C  0.97028083  0.34795779  0.64751468    -0.03400
C1008       C  0.97245170  0.38109758  0.64716507    -0.07800
C1009       C  0.50165776  0.41112242  0.66413812     0.05700
C1010       C  0.52924159  0.40745029  0.68183137    -0.02900
Br1011     Br  0.56943766  0.44563676  0.70869037    -0.02600
H1012       H  0.54832352  0.37194518  0.69621615     0.09600
H1013       H  0.95119222  0.38343375  0.63308803     0.07600
Br1014     Br  0.92988496  0.30958827  0.62114747    -0.03000
C1015       C  0.96892513  0.09468829  0.68124158    -0.09600
C1016       C  0.49939589  0.09508528  0.66623658     0.06600
C1017       C  0.52831017  0.12769264  0.65299201    -0.03400
C1018       C  0.52645845  0.15875505  0.65583331    -0.07800
C1019       C  0.49610206  0.15842170  0.67105565     0.05700
C1020       C  0.96697385  0.12575792  0.68377318    -0.02900
Br1021     Br  0.92430680  0.12147344  0.70661128    -0.02600
H1022       H  0.94646683  0.07001269  0.69172982     0.09600
H1023       H  0.54885685  0.18338661  0.64512842     0.07600
Br1024     Br  0.57040122  0.13194906  0.62839802    -0.03000
C1025       C  0.71750340  0.22529818  0.84980698    -0.09600
C1026       C  0.74862237  0.24766176  0.87132526     0.06600
C1027       C  0.77994935  0.26948181  0.84926115    -0.03400
C1028       C  0.77982145  0.26810113  0.80641712    -0.07800
C1029       C  0.74871068  0.24563812  0.78452865     0.05700
C1030       C  0.71703641  0.22441902  0.80689706    -0.02900
Br1031     Br  0.67203851  0.19322463  0.78189517    -0.02600
H1032       H  0.69322901  0.20863381  0.86654024     0.09600
H1033       H  0.80436553  0.28477625  0.79020034     0.07600
Br1034     Br  0.82424451  0.30010054  0.87590012    -0.03000
C1035       C  0.72618821  0.46235693  0.81426364    -0.09600
C1036       C  0.75112252  0.49309307  0.79360975     0.06600
C1037       C  0.77518538  0.02382702  0.81685264    -0.03400
C1038       C  0.77360024  0.02262273  0.85964070    -0.07800
C1039       C  0.74863397  0.49096488  0.88024046     0.05700
C1040       C  0.72476711  0.46092570  0.85713575    -0.02900
Br1041     Br  0.68846021  0.41757666  0.88136073    -0.02600
H1042       H  0.70778370  0.43922034  0.79693904     0.09600
H1043       H  0.79148779  0.04624812  0.87657870     0.07600
Br1044     Br  0.80799344  0.06830139  0.79171986    -0.03000
C1045       C  0.87717063  0.22083415  0.01018452    -0.09600
C1046       C  0.90788269  0.25245810  0.99877755     0.06600
C1047       C  0.90428371  0.28123595  0.98487453    -0.03400
C1048       C  0.87073171  0.27802280  0.98337189    -0.07800
C1049       C  0.84010003  0.24653942  0.99515479     0.05700
C1050       C  0.84361356  0.21758953  0.00854484    -0.02900
Br1051     Br  0.80445550  0.17339138  0.02702270    -0.02600
H1052       H  0.87919918  0.19837753  0.02102110     0.09600
H1053       H  0.86861609  0.30043398  0.97254165     0.07600
Br1054     Br  0.94335318  0.32527511  0.96584948    -0.03000
C1055       C  0.65688952  0.27893505  0.01081233    -0.09600
C1056       C  0.65537988  0.24727682  0.99831329     0.06600
C1057       C  0.62197304  0.21774688  0.98887357    -0.03400
C1058       C  0.59147839  0.22065595  0.99155511    -0.07800
C1059       C  0.59300624  0.25242324  0.00364837     0.05700
C1060       C  0.62633251  0.28174315  0.01381787    -0.02900
Br1061     Br  0.63238209  0.32594335  0.03381638    -0.02600
H1062       H  0.68211920  0.30177046  0.01895687     0.09600
H1063       H  0.56627291  0.19776837  0.98347012     0.07600
Br1064     Br  0.61560139  0.17294946  0.97057262    -0.03000
C1065       C  0.96837697  0.23245570  0.86071615    -0.09600
C1066       C  0.50072554  0.25408198  0.88037608     0.06600
C1067       C  0.53070750  0.27672024  0.85672181    -0.03400
C1068       C  0.52834579  0.27584463  0.81395739    -0.07800
C1069       C  0.99607754  0.25373360  0.79386963     0.05700
C1070       C  0.96548661  0.23276872  0.81801982    -0.02900
Br1071     Br  0.91865602  0.20444289  0.79588905    -0.02600
H1072       H  0.94491117  0.21595759  0.87882258     0.09600
H1073       H  0.55198983  0.29277920  0.79638186     0.07600
Br1074     Br  0.57584551  0.30860033  0.88091855    -0.03000
C1075       C  0.87055357  0.02411106  0.98316042    -0.09600
C1076       C  0.84172728  0.49506627  0.00397921     0.06600
C1077       C  0.84713448  0.46917973  0.02339506    -0.03400
C1078       C  0.88018260  0.47132143  0.02075889    -0.07800
C1079       C  0.90844428  0.49899385  0.99924762     0.05700
C1080       C  0.90362226  0.02623101  0.98038515    -0.02900
Br1081     Br  0.93940531  0.06380606  0.94762739    -0.02600
H1082       H  0.86682972  0.04414636  0.96792399     0.09600
H1083       H  0.88396817  0.45142842  0.03626332     0.07600
Br1084     Br  0.81144879  0.43143714  0.05596952    -0.03000
C1085       C  0.59144053  0.46504460  0.99462901    -0.09600
C1086       C  0.59314095  0.49820825  0.99495649     0.06600
C1087       C  0.62729186  0.03022965  0.99881721    -0.03400
C1088       C  0.65776609  0.02729860  0.00064252    -0.07800
C1089       C  0.65575309  0.49322271  0.99775945     0.05700
C1090       C  0.62206681  0.46221805  0.99529629    -0.02900
Br1091     Br  0.61520856  0.41510810  0.99135715    -0.02600
H1092       H  0.56594527  0.44081407  0.99366546     0.09600
H1093       H  0.68313952  0.05144805  0.00371673     0.07600
Br1094     Br  0.63469459  0.07763870  0.99923193    -0.03000
C1095       C  0.52561293  0.03202857  0.80868999    -0.09600
C1096       C  0.50087306  0.00156643  0.78773624     0.06600
C1097       C  0.97749972  0.47076739  0.80920709    -0.03400
C1098       C  0.97836696  0.47134002  0.85204276    -0.07800
C1099       C  0.50252638  0.00274523  0.87435292     0.05700
C1100       C  0.52655817  0.03307271  0.85151285    -0.02900
Br1101     Br  0.56216437  0.07669631  0.87578494    -0.02600
H1102       H  0.54411543  0.05538315  0.79160601     0.09600
H1103       H  0.96005741  0.44755644  0.86857444     0.07600
Br1104     Br  0.94493187  0.42683599  0.78308199    -0.03000
C1105       C  0.78620438  0.25105458  0.47153410    -0.09600
C1106       C  0.75821541  0.25176159  0.45100465     0.06600
C1107       C  0.73020812  0.25042041  0.47425158    -0.03400
C1108       C  0.73079893  0.24867162  0.51695776    -0.07800
C1109       C  0.75887646  0.24829677  0.53758809     0.05700
C1110       C  0.78683573  0.24943500  0.51440615    -0.02900
Br1111     Br  0.82546879  0.24667480  0.53886645    -0.02600
H1112       H  0.80771280  0.25169807  0.45414854     0.09600
H1113       H  0.70904149  0.24765236  0.53418227     0.07600
Br1114     Br  0.68907231  0.24851310  0.45003822    -0.03000
C1115       C  0.75279888  0.22152726  0.18392052    -0.09600
C1116       C  0.75104040  0.24900716  0.20441331     0.06600
C1117       C  0.74718214  0.27422245  0.18105681    -0.03400
C1118       C  0.74584679  0.27188332  0.13833523    -0.07800
C1119       C  0.74773291  0.24454502  0.11786283     0.05700
C1120       C  0.75090444  0.21891717  0.14113172    -0.02900
Br1121     Br  0.75469285  0.18082979  0.11675569    -0.02600
H1122       H  0.75556076  0.20182430  0.20126876     0.09600
H1123       H  0.74329270  0.29169163  0.12094038     0.07600
Br1124     Br  0.74528051  0.31365712  0.20472053    -0.03000
C1125       C  0.72691515  0.00456697  0.52842010    -0.09600
C1126       C  0.75248838  0.49947876  0.54725087     0.06600
C1127       C  0.77813487  0.49737190  0.52293276    -0.03400
C1128       C  0.77697631  0.49961811  0.48025677    -0.07800
C1129       C  0.75068033  0.50409867  0.46075585     0.05700
C1130       C  0.72581844  0.00703085  0.48570227    -0.02900
Br1131     Br  0.68805001  0.01260714  0.46348689    -0.02600
H1132       H  0.70731337  0.00668152  0.54680323     0.09600
H1133       H  0.79674675  0.49755324  0.46217693     0.07600
Br1134     Br  0.81392206  0.48894435  0.54575149    -0.03000
C1135       C  0.74932869  0.02616820  0.14700270    -0.09600
C1136       C  0.74711215  0.49557796  0.12726489     0.06600
C1137       C  0.74298193  0.46705447  0.15204447    -0.03400
C1138       C  0.74312110  0.46989164  0.19475171    -0.07800
C1139       C  0.74697343  0.50051068  0.21379868     0.05700
C1140       C  0.74889596  0.02848033  0.18979279    -0.02900
Br1141     Br  0.75324514  0.07111378  0.21270214    -0.02600
H1142       H  0.75101098  0.04776643  0.12878208     0.09600
H1143       H  0.74014793  0.44789219  0.21327498     0.07600
Br1144     Br  0.73873136  0.42404702  0.13040767    -0.03000
C1145       C  0.52429357  0.25344445  0.48038179    -0.09600
C1146       C  0.49462700  0.25056098  0.45994194     0.06600
C1147       C  0.96519564  0.24566609  0.48316532    -0.03400
C1148       C  0.96639051  0.24492766  0.52599263    -0.07800
C1149       C  0.99653744  0.24898155  0.54660938     0.05700
C1150       C  0.52558773  0.25277425  0.52320201    -0.02900
Br1151     Br  0.56732330  0.25573355  0.54703751    -0.02600
H1152       H  0.54686995  0.25662453  0.46291572     0.09600
H1153       H  0.94361317  0.24144880  0.54324541     0.07600
Br1154     Br  0.92184089  0.23770678  0.45840827    -0.03000
C1155       C  0.90465459  0.13199791  0.34643365    -0.09600
C1156       C  0.90481634  0.16249139  0.33214956     0.06600
C1157       C  0.87284156  0.15931464  0.31739645    -0.03400
C1158       C  0.84155368  0.12641426  0.31890951    -0.07800
C1159       C  0.84133515  0.09603613  0.33397673     0.05700
C1160       C  0.87359474  0.09907777  0.34736955    -0.02900
Br1161     Br  0.87753603  0.06016617  0.36921394    -0.02600
H1162       H  0.92889561  0.13379189  0.35774521     0.09600
H1163       H  0.81726983  0.12448878  0.30752979     0.07600
Br1164     Br  0.87010968  0.19790988  0.29245537    -0.03000
C1165       C  0.62549145  0.41125795  0.32821282    -0.09600
C1166       C  0.65641416  0.41092114  0.33965456     0.06600
C1167       C  0.65367655  0.37816569  0.35056228    -0.03400
C1168       C  0.62060486  0.34711455  0.35010907    -0.07800
C1169       C  0.58970681  0.34749857  0.33868735     0.05700
C1170       C  0.59253085  0.38014305  0.32720765    -0.02900
Br1171     Br  0.55335279  0.38441358  0.30711929    -0.02600
H1172       H  0.62697044  0.43588518  0.31901118     0.09600
H1173       H  0.61909392  0.32240451  0.35899659     0.07600
Br1174     Br  0.69333406  0.37330085  0.36736061    -0.03000
C1175       C  0.00044589  0.28469584  0.19171623    -0.09600
C1176       C  0.49724611  0.25545187  0.21349404     0.06600
C1177       C  0.49346109  0.22581356  0.19157257    -0.03400
C1178       C  0.49407532  0.22635101  0.14876307    -0.07800
C1179       C  0.49835138  0.25597234  0.12678368     0.05700
C1180       C  0.00108985  0.28530102  0.14879489    -0.02900
Br1181     Br  0.00422232  0.32646393  0.12284991    -0.02600
H1182       H  0.00284763  0.30739710  0.20817309     0.09600
H1183       H  0.49136296  0.20340775  0.13259340     0.07600
Br1184     Br  0.48521398  0.18282814  0.21795115    -0.03000
C1185       C  0.97312285  0.99927482  0.47501748    -0.09600
C1186       C  0.50398717  0.50554857  0.45364104     0.06600
C1187       C  0.53335932  0.51008740  0.47664697    -0.03400
C1188       C  0.53186882  0.50982655  0.51950884    -0.07800
C1189       C  0.50088955  0.00385526  0.54117047     0.05700
C1190       C  0.97110696  0.99806225  0.51778841    -0.02900
Br1191     Br  0.92683144  0.98896613  0.54128818    -0.02600
H1192       H  0.95017582  0.99497355  0.45756774     0.09600
H1193       H  0.55478649  0.51364185  0.53660196     0.07600
Br1194     Br  0.57681774  0.51833149  0.45166276    -0.03000
C1195       C  0.91232601  0.38153224  0.33142798    -0.09600
C1196       C  0.91060720  0.41288769  0.32873980     0.06600
C1197       C  0.87699423  0.41005516  0.32408632    -0.03400
C1198       C  0.84652874  0.37656849  0.32245911    -0.07800
C1199       C  0.84826041  0.34522252  0.32557625     0.05700
C1200       C  0.88189125  0.34808981  0.32996125    -0.02900
Br1201     Br  0.88917641  0.30817632  0.33513782    -0.02600
H1202       H  0.93766592  0.38285115  0.33495388     0.09600
H1203       H  0.82115077  0.37518139  0.31893775     0.07600
Br1204     Br  0.86979182  0.45007019  0.31969140    -0.03000
C1205       C  0.62644128  0.09681589  0.31744312    -0.09600
C1206       C  0.59629018  0.09748386  0.33162571     0.06600
C1207       C  0.60018209  0.12991983  0.34577209    -0.03400
C1208       C  0.63354280  0.16051673  0.34509364    -0.07800
C1209       C  0.66364128  0.15986539  0.33071169     0.05700
C1210       C  0.65979715  0.12741752  0.31675018    -0.02900
Br1211     Br  0.69811473  0.12276528  0.29433792    -0.02600
H1212       H  0.62406131  0.07231569  0.30616894     0.09600
H1213       H  0.63595005  0.18504595  0.35631692     0.07600
Br1214     Br  0.56190636  0.13467366  0.36809320    -0.03000
C1215       C  0.99884618  0.47430892  0.18759484    -0.09600
C1216       C  0.50153298  0.00477306  0.20802459     0.06600
C1217       C  0.50350709  0.03267921  0.18404201    -0.03400
C1218       C  0.50315152  0.03033437  0.14125908    -0.07800
C1219       C  0.50084096  0.00056649  0.12139594     0.05700
C1220       C  0.99840770  0.47169668  0.14483786    -0.02900
Br1221     Br  0.99723032  0.43040549  0.12216646    -0.02600
H1222       H  0.99741523  0.45277560  0.20574669     0.09600
H1223       H  0.50485862  0.05212475  0.12340353     0.07600
Br1224     Br  0.50921069  0.07573891  0.20740102    -0.03000
O1225       O  0.97370007  0.94794183  0.33221527    -0.72200
O1226       O  0.56082540  0.53450307  0.32876461    -0.72500
O1227       O  0.51885223  0.99195698  0.38906521    -0.72300
O1228       O  0.51592901  0.99042320  0.27290537    -0.72300
O1229       O  0.98915399  0.52105066  0.27247867    -0.72300
O1230       O  0.98838467  0.51921017  0.38895586    -0.72300
O1231       O  0.53252316  0.56361944  0.33159133    -0.72300
O1232       O  0.94517155  0.97681423  0.33068039    -0.72400
V1233       V  0.51679554  0.99177631  0.33097221     1.35200
V1234       V  0.98932847  0.51962871  0.33073027     1.35200
C1235       C  0.94442261  0.94742312  0.33096828     0.77000
C1236       C  0.56167474  0.56392538  0.33049545     0.77000
C1237       C  0.50401714  0.00565033  0.40932562     0.76900
C1238       C  0.50227307  0.50551262  0.25240538     0.76900
O1239       O  0.55513967  0.78401168  0.33852314    -0.72200
O1240       O  0.96784049  0.69711617  0.33564636    -0.72500
O1241       O  0.51223594  0.74172201  0.27933464    -0.72300
O1242       O  0.51072599  0.73896031  0.39522565    -0.72300
O1243       O  0.98111642  0.76690943  0.39622453    -0.72300
O1244       O  0.98431616  0.77131703  0.27958681    -0.72300
O1245       O  0.93921952  0.72599823  0.33538187    -0.72300
O1246       O  0.52642884  0.81275907  0.34026115    -0.72400
V1247       V  0.51094661  0.74105428  0.33723465     1.35200
V1248       V  0.98338632  0.76878521  0.33791333     1.35200
C1249       C  0.55571433  0.81334703  0.33948348     0.77000
C1250       C  0.93860069  0.69670262  0.33438849     0.77000
C1251       C  0.49796553  0.75620705  0.25958773     0.76900
C1252       C  0.49524565  0.75194728  0.41554632     0.76900
O1253       O  0.77805929  0.56157436  0.33596073    -0.72200
O1254       O  0.69114999  0.97404140  0.33903678    -0.72500
O1255       O  0.73522706  0.51846591  0.39545717    -0.72300
O1256       O  0.73397474  0.51722767  0.27872786    -0.72300
O1257       O  0.76191373  0.98763268  0.27939896    -0.72300
O1258       O  0.76493956  0.99038979  0.39546433    -0.72300
O1259       O  0.72003444  0.94546583  0.33947066    -0.72300
O1260       O  0.80672288  0.53276093  0.33500511    -0.72400
V1261       V  0.73511849  0.51733925  0.33706985     1.35200
V1262       V  0.76286837  0.98963247  0.33741873     1.35200
C1263       C  0.80733606  0.56207447  0.33515846     0.77000
C1264       C  0.69070098  0.94475236  0.33995960     0.77000
C1265       C  0.75009284  0.50448930  0.41524820     0.76900
C1266       C  0.74773571  0.50209048  0.25904148     0.76900
O1267       O  0.72712627  0.69410696  0.32917069    -0.72200
O1268       O  0.81399607  0.78152428  0.32605491    -0.72500
O1269       O  0.77184562  0.73848207  0.38582067    -0.72300
O1270       O  0.76901128  0.73674272  0.26936237    -0.72300
O1271       O  0.73992932  0.76513737  0.27043167    -0.72300
O1272       O  0.74317643  0.76727660  0.38644481    -0.72300
O1273       O  0.78502765  0.80996009  0.32660242    -0.72300
O1274       O  0.69838237  0.72282661  0.33023489    -0.72400
V1275       V  0.77002284  0.73830857  0.32761251     1.35200
V1276       V  0.74225132  0.76578493  0.32839653     1.35200
C1277       C  0.69784547  0.69353244  0.32994388     0.77000
C1278       C  0.81445242  0.81078131  0.32613877     0.77000
C1279       C  0.75738081  0.75263772  0.40607801     0.76900
C1280       C  0.75369467  0.75047272  0.24999902     0.76900
O1281       O  0.97193662  0.52851713  0.99701540    -0.72200
O1282       O  0.55898194  0.52792361  0.99776269    -0.72500
O1283       O  0.51640602  0.52932034  0.93958061    -0.72300
O1284       O  0.51479474  0.52784532  0.05541826    -0.72300
O1285       O  0.98763751  0.97151703  0.05582027    -0.72300
O1286       O  0.98667669  0.97286920  0.93918018    -0.72300
O1287       O  0.53039137  0.97161464  0.99605166    -0.72300
O1288       O  0.94373613  0.97213970  0.99878958    -0.72400
V1289       V  0.51499119  0.52728614  0.99744842     1.35200
V1290       V  0.98765221  0.97312214  0.99748517     1.35200
C1291       C  0.94317050  0.00086548  0.99819429     0.77000
C1292       C  0.55983074  0.00017174  0.99689155     0.77000
C1293       C  0.50172228  0.50108414  0.91898063     0.76900
C1294       C  0.50094056  0.49900776  0.07513823     0.76900
O1295       O  0.51781008  0.78253766  0.94607560    -0.72200
O1296       O  0.51322663  0.78325892  0.06187168    -0.72500
O1297       O  0.55919291  0.78251436  0.00701918    -0.72300
O1298       O  0.97164010  0.78223558  0.00070887    -0.72300
O1299       O  0.94329516  0.72486232  0.00419492    -0.72300
O1300       O  0.53017441  0.72506355  0.00477378    -0.72300
O1301       O  0.98669855  0.72580358  0.06294058    -0.72300
O1302       O  0.98665392  0.72499068  0.94625350    -0.72400
V1303       V  0.51496703  0.78155073  0.00399117     1.35200
V1304       V  0.98735077  0.72627941  0.00458754     1.35200
C1305       C  0.50228320  0.75382055  0.92637640     0.77000
C1306       C  0.49908149  0.75481770  0.08226901     0.77000
C1307       C  0.55956698  0.75361554  0.00618682     0.76900
C1308       C  0.94241819  0.75333236  0.00131818     0.76900
O1309       O  0.77857159  0.96598961  0.00654929    -0.72200
O1310       O  0.69069864  0.96494418  0.00293177    -0.72500
O1311       O  0.73531068  0.96405835  0.94688999    -0.72300
O1312       O  0.73377204  0.96644197  0.06302502    -0.72300
O1313       O  0.76224267  0.52291999  0.06111239    -0.72300
O1314       O  0.76247357  0.52067755  0.94475565    -0.72300
O1315       O  0.71878885  0.52142691  0.00175095    -0.72300
O1316       O  0.80624662  0.52250128  0.00346907    -0.72400
V1317       V  0.73512903  0.96645007  0.00489492     1.35200
V1318       V  0.76190437  0.52076013  0.00290118     1.35200
C1319       C  0.80762984  0.99500207  0.00535958     0.77000
C1320       C  0.68993306  0.99357988  0.00110832     0.77000
C1321       C  0.74909192  0.99228066  0.92603275     0.76900
C1322       C  0.74803468  0.99551157  0.08218891     0.76900
O1323       O  0.80509008  0.77429430  0.99620468    -0.72200
O1324       O  0.71859417  0.77524230  0.99551237    -0.72500
O1325       O  0.76081170  0.77338589  0.05370222    -0.72300
O1326       O  0.76313920  0.77606878  0.93749704    -0.72300
O1327       O  0.73175253  0.71856321  0.93601236    -0.72300
O1328       O  0.73382840  0.71587162  0.05241293    -0.72300
O1329       O  0.68939705  0.71775927  0.99665343    -0.72300
O1330       O  0.77626907  0.71692033  0.99210361    -0.72400
V1331       V  0.76130895  0.77361430  0.99564705     1.35200
V1332       V  0.73332378  0.71834158  0.99423554     1.35200
C1333       C  0.80559082  0.74554749  0.99439863     0.77000
C1334       C  0.68914262  0.74668960  0.99679838     0.77000
C1335       C  0.74754406  0.74427574  0.07290532     0.76900
C1336       C  0.74782948  0.74773976  0.91693758     0.76900
O1337       O  0.53006706  0.97447041  0.66517225    -0.72200
O1338       O  0.52934370  0.56131271  0.66350358    -0.72500
O1339       O  0.52988367  0.51825631  0.72200447    -0.72300
O1340       O  0.52994469  0.51772699  0.60559739    -0.72300
O1341       O  0.97215481  0.98963682  0.60672923    -0.72300
O1342       O  0.97204125  0.98723331  0.72283329    -0.72300
O1343       O  0.97193208  0.53205946  0.66571898    -0.72300
O1344       O  0.97262581  0.94529562  0.66336887    -0.72400
V1345       V  0.52882539  0.51744489  0.66383416     1.35200
V1346       V  0.97320825  0.98910635  0.66477037     1.35200
C1347       C  0.50150304  0.94504076  0.66453799     0.77000
C1348       C  0.50047414  0.56156362  0.66479226     0.77000
C1349       C  0.50109631  0.50215136  0.74176588     0.76900
C1350       C  0.50116070  0.50410765  0.58579199     0.76900
O1351       O  0.96799954  0.78066488  0.66892214    -0.72200
O1352       O  0.96739238  0.69313155  0.67253662    -0.72500
O1353       O  0.96749630  0.73819173  0.72906839    -0.72300
O1354       O  0.96782024  0.73565381  0.61273651    -0.72300
O1355       O  0.52526884  0.76390164  0.61285666    -0.72300
O1356       O  0.52487453  0.76685199  0.72917817    -0.72300
O1357       O  0.52484062  0.72169663  0.67289018    -0.72300
O1358       O  0.52546905  0.80903038  0.66885109    -0.72400
V1359       V  0.96877368  0.73745241  0.67088314     1.35200
V1360       V  0.52399785  0.76480650  0.67100077     1.35200
C1361       C  0.49686266  0.80980731  0.66778438     0.77000
C1362       C  0.49604882  0.69243085  0.67289366     0.77000
C1363       C  0.99608537  0.75299639  0.74914019     0.76900
C1364       C  0.99662082  0.74923027  0.59286890     0.76900
O1365       O  0.78038715  0.50922206  0.72874570    -0.72200
O1366       O  0.78107265  0.51066641  0.61242639    -0.72500
O1367       O  0.77930558  0.55251852  0.67122800    -0.72300
O1368       O  0.78243731  0.96700092  0.67015528    -0.72300
O1369       O  0.72509252  0.93729106  0.66779870    -0.72300
O1370       O  0.72188473  0.52261339  0.67288767    -0.72300
O1371       O  0.72406289  0.98267629  0.61256872    -0.72300
O1372       O  0.72370837  0.97800422  0.72881999    -0.72400
V1373       V  0.77963323  0.50924895  0.67059155     1.35200
V1374       V  0.72501988  0.98082024  0.67067804     1.35200
C1375       C  0.75236571  0.99376538  0.74873085     0.77000
C1376       C  0.75291407  0.99735388  0.59280061     0.77000
C1377       C  0.75018360  0.55228786  0.67221529     0.76900
C1378       C  0.75420975  0.93740659  0.66818610     0.76900
O1379       O  0.72190313  0.73016179  0.71799130    -0.72200
O1380       O  0.72611757  0.73123129  0.60187839    -0.72500
O1381       O  0.72414580  0.68700684  0.66080157    -0.72300
O1382       O  0.72394069  0.77399634  0.65927698    -0.72300
O1383       O  0.78132210  0.80290215  0.66069929    -0.72300
O1384       O  0.78150977  0.71585681  0.66455011    -0.72300
O1385       O  0.78360943  0.75904617  0.60437688    -0.72300
O1386       O  0.77920458  0.75982548  0.72081894    -0.72400
V1387       V  0.72515510  0.73110231  0.65999729     1.35200
V1388       V  0.78033449  0.75882638  0.66254550     1.35200
C1389       C  0.74970399  0.74521135  0.73939475     0.77000
C1390       C  0.75553373  0.74540534  0.58329381     0.77000
C1391       C  0.75288492  0.68653075  0.66310238     0.76900
C1392       C  0.75251566  0.80335887  0.65968507     0.76900
C1393       C  0.72337784  0.87259205  0.65501187    -0.09600
C1394       C  0.75480666  0.90363618  0.66568963     0.06600
C1395       C  0.78563682  0.90136652  0.67305236    -0.03400
C1396       C  0.78412870  0.86858954  0.67031566    -0.07800
C1397       C  0.75256033  0.83748223  0.66017589     0.05700
C1398       C  0.72196702  0.83990164  0.65189219    -0.02900
Br1399     Br  0.67750241  0.80045750  0.63460099    -0.02600
H1400       H  0.69955591  0.87368805  0.64849209     0.09600
H1401       H  0.80794131  0.86746079  0.67678900     0.07600
Br1402     Br  0.83069265  0.94115323  0.68807398    -0.03000
C1403       C  0.78046790  0.61642303  0.65639585    -0.09600
C1404       C  0.74994863  0.58618629  0.67093451     0.06600
C1405       C  0.72040361  0.58933353  0.68270110    -0.03400
C1406       C  0.72200502  0.62216280  0.67946675    -0.07800
C1407       C  0.75262068  0.65239828  0.66498966     0.05700
C1408       C  0.78209936  0.64916383  0.65324543    -0.02900
Br1409     Br  0.82497638  0.68744228  0.63072226    -0.02600
H1410       H  0.80328763  0.61457450  0.64663639     0.09600
H1411       H  0.69921741  0.62414364  0.68905435     0.07600
Br1412     Br  0.67763346  0.55074886  0.70510276    -0.03000
C1413       C  0.52733517  0.87440467  0.68170648    -0.09600
C1414       C  0.49761425  0.84415015  0.66594984     0.06600
C1415       C  0.96970088  0.84765251  0.64898741    -0.03400
C1416       C  0.97180835  0.88076532  0.64874712    -0.07800
C1417       C  0.50136791  0.91096400  0.66490204     0.05700
C1418       C  0.52942090  0.90750460  0.68154763    -0.02900
Br1419     Br  0.57037013  0.94597378  0.70697228    -0.02600
H1420       H  0.54890303  0.87220939  0.69511819     0.09600
H1421       H  0.95020246  0.88293161  0.63540032     0.07600
Br1422     Br  0.92874549  0.80905622  0.62372736    -0.03000
C1423       C  0.96941563  0.59482878  0.68166263    -0.09600
C1424       C  0.49976576  0.59528143  0.66612410     0.06600
C1425       C  0.52856834  0.62793728  0.65281211    -0.03400
C1426       C  0.52669874  0.65897326  0.65600629    -0.07800
C1427       C  0.49644329  0.65856833  0.67170114     0.05700
C1428       C  0.96746240  0.62587975  0.68458953    -0.02900
Br1429     Br  0.92504718  0.62157582  0.70823256    -0.02600
H1430       H  0.94706625  0.57012536  0.69227389     0.09600
H1431       H  0.54898668  0.68363889  0.64519023     0.07600
Br1432     Br  0.57050888  0.63229356  0.62767849    -0.03000
C1433       C  0.71709467  0.72657330  0.85042013    -0.09600
C1434       C  0.74846482  0.74847321  0.87173149     0.06600
C1435       C  0.77979266  0.76989024  0.84947073    -0.03400
C1436       C  0.77944853  0.76831235  0.80661256    -0.07800
C1437       C  0.74809652  0.74613238  0.78493515     0.05700
C1438       C  0.71638936  0.72559852  0.80753282    -0.02900
Br1439     Br  0.67094072  0.69534842  0.78295059    -0.02600
H1440       H  0.69279989  0.71033788  0.86731740     0.09600
H1441       H  0.80400484  0.78457111  0.79022796     0.07600
Br1442     Br  0.82429981  0.80019065  0.87586773    -0.03000
C1443       C  0.72761798  0.96263194  0.81461816    -0.09600
C1444       C  0.75206056  0.99357888  0.79393936     0.06600
C1445       C  0.77457605  0.52317548  0.81655432    -0.03400
C1446       C  0.77313789  0.52187580  0.85933679    -0.07800
C1447       C  0.74943303  0.99157296  0.88059404     0.05700
C1448       C  0.72623113  0.96119835  0.85748911    -0.02900
Br1449     Br  0.69109902  0.91716407  0.88162019    -0.02600
H1450       H  0.70962976  0.93928882  0.79729422     0.09600
H1451       H  0.79137376  0.54531806  0.87631033     0.07600
Br1452     Br  0.80756248  0.56763341  0.79151456    -0.03000
C1453       C  0.87685194  0.72006846  0.00896769    -0.09600
C1454       C  0.90774008  0.75202900  0.99883438     0.06600
C1455       C  0.90429308  0.78119355  0.98612460    -0.03400
C1456       C  0.87075635  0.77798715  0.98444292    -0.07800
C1457       C  0.83996458  0.74621216  0.99506051     0.05700
C1458       C  0.84330531  0.71688747  0.00731546    -0.02900
Br1459     Br  0.80392242  0.67223771  0.02433091    -0.02600
H1460       H  0.87872095  0.69730046  0.01890072     0.09600
H1461       H  0.86881101  0.80072414  0.97454925     0.07600
Br1462     Br  0.94358478  0.82601245  0.96941548    -0.03000
C1463       C  0.65661953  0.77819552  0.01530921    -0.09600
C1464       C  0.65559329  0.74764864  0.99942509     0.06600
C1465       C  0.62260665  0.71900089  0.98701442    -0.03400
C1466       C  0.59203913  0.72174105  0.98993635    -0.07800
C1467       C  0.59308023  0.75243316  0.00531851     0.05700
C1468       C  0.62590062  0.78072408  0.01874765    -0.02900
Br1469     Br  0.63064370  0.82262091  0.04430875    -0.02600
H1470       H  0.68151109  0.80019295  0.02591728     0.09600
H1471       H  0.56718931  0.69965155  0.97939458     0.07600
Br1472     Br  0.61710932  0.67586505  0.96408863    -0.03000
C1473       C  0.96857532  0.73337693  0.86169234    -0.09600
C1474       C  0.50116835  0.75411425  0.88128115     0.06600
C1475       C  0.53136856  0.77600923  0.85756103    -0.03400
C1476       C  0.52893496  0.77521375  0.81478929    -0.07800
C1477       C  0.99640410  0.75395544  0.79475113     0.05700
C1478       C  0.96565402  0.73384198  0.81900237    -0.02900
Br1479     Br  0.91855234  0.70712884  0.79707018    -0.02600
H1480       H  0.94496790  0.71752606  0.87986454     0.09600
H1481       H  0.55274534  0.79152537  0.79717766     0.07600
Br1482     Br  0.57684570  0.80672172  0.88172577    -0.03000
C1483       C  0.87002782  0.52276848  0.98244944    -0.09600
C1484       C  0.84212464  0.99608196  0.00418620     0.06600
C1485       C  0.84741358  0.96986786  0.02291559    -0.03400
C1486       C  0.88049924  0.97213820  0.02037898    -0.07800
C1487       C  0.90890787  0.00015518  0.99947984     0.05700
C1488       C  0.90306996  0.52484267  0.97972405    -0.02900
Br1489     Br  0.93873737  0.56207000  0.94650046    -0.02600
H1490       H  0.86622353  0.54259081  0.96680583     0.09600
H1491       H  0.88416979  0.95200385  0.03545281     0.07600
Br1492     Br  0.81148946  0.93128202  0.05425719    -0.03000
C1493       C  0.59202623  0.96632698  0.99235663    -0.09600
C1494       C  0.59358370  0.99931534  0.99605180     0.06600
C1495       C  0.62691401  0.52918285  0.99450696    -0.03400
C1496       C  0.65744328  0.52634649  0.99662436    -0.07800
C1497       C  0.65617552  0.99427150  0.99830969     0.05700
C1498       C  0.62269973  0.96354987  0.99264944    -0.02900
Br1499     Br  0.61644151  0.91717752  0.98304504    -0.02600
H1500       H  0.56664783  0.94226219  0.98875838     0.09600
H1501       H  0.68291763  0.55061372  0.99705432     0.07600
Br1502     Br  0.63421259  0.57640150  0.98958272    -0.03000
C1503       C  0.52543673  0.53181323  0.80807643    -0.09600
C1504       C  0.50110595  0.50130684  0.78689041     0.06600
C1505       C  0.97702982  0.97129646  0.81028891    -0.03400
C1506       C  0.97812067  0.97208413  0.85311145    -0.07800
C1507       C  0.50232574  0.50204940  0.87353015     0.05700
C1508       C  0.52617215  0.53264193  0.85091073    -0.02900
Br1509     Br  0.56124747  0.57639974  0.87547036    -0.02600
H1510       H  0.54376025  0.55536821  0.79116571     0.09600
H1511       H  0.95962830  0.94850615  0.86983556     0.07600
Br1512     Br  0.94380697  0.92741783  0.78455419    -0.03000
C1513       C  0.78170346  0.74547224  0.47203744    -0.09600
C1514       C  0.75691508  0.75164603  0.45151827     0.06600
C1515       C  0.73163360  0.75541053  0.47498024    -0.03400
C1516       C  0.73170341  0.75295980  0.51770261    -0.07800
C1517       C  0.75666705  0.74712434  0.53807452     0.05700
C1518       C  0.78183368  0.74329086  0.51483121    -0.02900
Br1519     Br  0.81551137  0.73273260  0.53929508    -0.02600
H1520       H  0.80108395  0.74216738  0.45473481     0.09600
H1521       H  0.71218186  0.75590211  0.53519888     0.07600
Br1522     Br  0.69504433  0.76227588  0.45144388    -0.03000
C1523       C  0.75376057  0.72164165  0.18419233    -0.09600
C1524       C  0.75145712  0.74883595  0.20468966     0.06600
C1525       C  0.74688645  0.77361578  0.18132522    -0.03400
C1526       C  0.74536479  0.77114081  0.13864478    -0.07800
C1527       C  0.74781792  0.74413521  0.11817699     0.05700
C1528       C  0.75171751  0.71892705  0.14138883    -0.02900
Br1529     Br  0.75638987  0.68142332  0.11679392    -0.02600
H1530       H  0.75706418  0.70226575  0.20153032     0.09600
H1531       H  0.74226180  0.79062323  0.12125564     0.07600
Br1532     Br  0.74422005  0.81269423  0.20483528    -0.03000
C1533       C  0.72617433  0.50394246  0.52797594    -0.09600
C1534       C  0.75294084  0.99962035  0.54763576     0.06600
C1535       C  0.77829471  0.99702103  0.52329953    -0.03400
C1536       C  0.77709020  0.99919318  0.48063017    -0.07800
C1537       C  0.75105840  0.00411944  0.46117439     0.05700
C1538       C  0.72510823  0.50645047  0.48524633    -0.02900
Br1539     Br  0.68691530  0.51123655  0.46290093    -0.02600
H1540       H  0.70631154  0.50563205  0.54631898     0.09600
H1541       H  0.79661896  0.99673301  0.46252739     0.07600
Br1542     Br  0.81373355  0.98805710  0.54609857    -0.03000
C1543       C  0.75121243  0.52632696  0.14648145    -0.09600
C1544       C  0.74752439  0.99647841  0.12760925     0.06600
C1545       C  0.74549434  0.96873377  0.15216180    -0.03400
C1546       C  0.74542051  0.97125354  0.19487154    -0.07800
C1547       C  0.74695594  0.00078100  0.21419108     0.05700
C1548       C  0.75108199  0.52897775  0.18923496    -0.02900
Br1549     Br  0.75909829  0.57305089  0.21201980    -0.02600
H1550       H  0.75459454  0.54857282  0.12816644     0.09600
H1551       H  0.74409134  0.94983559  0.21316511     0.07600
Br1552     Br  0.74452396  0.92735467  0.13011781    -0.03000
C1553       C  0.52425247  0.75305210  0.48123871    -0.09600
C1554       C  0.49459124  0.75014150  0.46077503     0.06600
C1555       C  0.96508857  0.74509713  0.48392951    -0.03400
C1556       C  0.96626851  0.74444349  0.52676232    -0.07800
C1557       C  0.99645157  0.74863130  0.54742378     0.05700
C1558       C  0.52550634  0.75238055  0.52405845    -0.02900
Br1559     Br  0.56717418  0.75522746  0.54795020    -0.02600
H1560       H  0.54684749  0.75625551  0.46379254     0.09600
H1561       H  0.94345109  0.74090294  0.54397604     0.07600
Br1562     Br  0.92164795  0.73670445  0.45900001    -0.03000
C1563       C  0.90455860  0.63199918  0.34691751    -0.09600
C1564       C  0.90477668  0.66257846  0.33287425     0.06600
C1565       C  0.87281023  0.65955994  0.31832724    -0.03400
C1566       C  0.84153055  0.62664515  0.31949397    -0.07800
C1567       C  0.84127872  0.59615208  0.33420538     0.05700
C1568       C  0.87347192  0.59910809  0.34770236    -0.02900
Br1569     Br  0.87724765  0.56013861  0.36965807    -0.02600
H1570       H  0.92876871  0.63371197  0.35821114     0.09600
H1571       H  0.81726952  0.62481905  0.30819056     0.07600
Br1572     Br  0.87002816  0.69844154  0.29429180    -0.03000
C1573       C  0.62574196  0.91091338  0.32835265    -0.09600
C1574       C  0.65654248  0.91076057  0.34072774     0.06600
C1575       C  0.65372041  0.87819861  0.35274311    -0.03400
C1576       C  0.62067068  0.84709259  0.35224396    -0.07800
C1577       C  0.58989787  0.84729081  0.33978762     0.05700
C1578       C  0.59281732  0.87977440  0.32737217    -0.02900
Br1579     Br  0.55384320  0.88375310  0.30598088    -0.02600
H1580       H  0.62731372  0.93540391  0.31835586     0.09600
H1581       H  0.61906036  0.82251452  0.36194631     0.07600
Br1582     Br  0.69322834  0.87381904  0.37134597    -0.03000
C1583       C  0.99710983  0.78292190  0.19243601    -0.09600
C1584       C  0.49716209  0.75517115  0.21429263     0.06600
C1585       C  0.49619135  0.72672557  0.19232820    -0.03400
C1586       C  0.49646506  0.72714933  0.14952784    -0.07800
C1587       C  0.49758844  0.75539793  0.12757932     0.05700
C1588       C  0.99732344  0.78331395  0.14950281    -0.02900
Br1589     Br  0.99538215  0.82184983  0.12320583    -0.02600
H1590       H  0.99719419  0.80460142  0.20880613     0.09600
H1591       H  0.49606564  0.70525410  0.13330491     0.07600
Br1592     Br  0.49242878  0.68534086  0.21839313    -0.03000
C1593       C  0.97353852  0.50042899  0.47426620    -0.09600
C1594       C  0.50390712  0.00522435  0.45452509     0.06600
C1595       C  0.53347926  0.01046323  0.47761183    -0.03400
C1596       C  0.53185407  0.01008895  0.52046351    -0.07800
C1597       C  0.50121866  0.50435404  0.54032191     0.05700
C1598       C  0.97164249  0.49930471  0.51705212    -0.02900
Br1599     Br  0.92783953  0.49138515  0.54076836    -0.02600
H1600       H  0.95074082  0.49667981  0.45691774     0.09600
H1601       H  0.55494422  0.01448376  0.53762419     0.07600
Br1602     Br  0.57736860  0.01993023  0.45271611    -0.03000
C1603       C  0.91224928  0.88161222  0.33245097    -0.09600
C1604       C  0.91060728  0.91299155  0.32947212     0.06600
C1605       C  0.87703081  0.91018967  0.32448840    -0.03400
C1606       C  0.84652612  0.87670878  0.32287142    -0.07800
C1607       C  0.84818200  0.84533519  0.32629597     0.05700
C1608       C  0.88178708  0.84818410  0.33097745    -0.02900
Br1609     Br  0.88901681  0.80826411  0.33653113    -0.02600
H1610       H  0.93755645  0.88290209  0.33622007     0.09600
H1611       H  0.82118041  0.87534654  0.31909453     0.07600
Br1612     Br  0.86995842  0.95025319  0.31954438    -0.03000
C1613       C  0.62658308  0.59658546  0.31834713    -0.09600
C1614       C  0.59615138  0.59747930  0.33091027     0.06600
C1615       C  0.59981627  0.63011668  0.34389055    -0.03400
C1616       C  0.63318566  0.66069095  0.34344051    -0.07800
C1617       C  0.66355929  0.65983161  0.33059420     0.05700
C1618       C  0.65998107  0.62713186  0.31807715    -0.02900
Br1619     Br  0.69877297  0.62186272  0.29858329    -0.02600
H1620       H  0.62443796  0.57190921  0.30814979     0.09600
H1621       H  0.63536414  0.68537840  0.35366399     0.07600
Br1622     Br  0.56123167  0.63526989  0.36435642    -0.03000
C1623       C  0.99933264  0.97508144  0.18825173    -0.09600
C1624       C  0.50123090  0.50417868  0.20712587     0.06600
C1625       C  0.50328430  0.53200512  0.18293751    -0.03400
C1626       C  0.50285125  0.52942534  0.14019160    -0.07800
C1627       C  0.50042180  0.49951456  0.12055473     0.05700
C1628       C  0.99894513  0.97269203  0.14547894    -0.02900
Br1629     Br  0.99797326  0.93158616  0.12252268    -0.02600
H1630       H  0.99797580  0.95349617  0.20622642     0.09600
H1631       H  0.50463427  0.55117599  0.12218219     0.07600
Br1632     Br  0.50927224  0.57528748  0.20594641    -0.03000
loop_ 
_geom_bond_atom_site_label_1 
_geom_bond_atom_site_label_2 
_geom_bond_distance 
_geom_bond_site_symmetry_2 
_ccdc_geom_bond_type 
O1           C11   1.265       .  A
O1          V825   1.893       .  S
O2           C12   1.264       .  A
O2          V417   1.894   1_545  S
O3           C13   1.262       .  A
O3            V9   1.896       .  S
O4          C422   1.263       .  A
O4            V9   1.894       .  S
O5          C830   1.264       .  A
O5           V10   1.900       .  S
O6         C1237   1.265       .  A
O6           V10   1.898       .  S
O7           C12   1.264       .  A
O7          V826   1.900   1_455  S
O8           C11   1.264       .  A
O8          V418   1.900       .  S
V9          O817   1.893   1_455  S
V9          O410   1.893       .  S
V9         V1234   2.084   1_455  T
V10         O823   1.900       .  S
V10         O416   1.900   1_545  S
V10        V1233   2.084   1_545  T
C11         C380   1.487       .  S
C12         C390   1.482       .  S
C13        O1230   1.265   1_455  A
C13         C370   1.475       .  S
C14         O412   1.264   1_545  A
C14         O821   1.264   1_455  A
C14         C400   1.478       .  S
O15          C25   1.265       .  A
O15          V23   1.899       .  S
O16          C26   1.265       .  A
O16         V839   1.897       .  S
O17          C27   1.262   1_455  A
O17          V23   1.889       .  S
O18          C28   1.263   1_455  A
O18          V23   1.894       .  S
O19         C844   1.265       .  A
O19          V24   1.903       .  S
O20         C843   1.265       .  A
O20          V24   1.903       .  S
O21          C26   1.263       .  A
O21          V24   1.898       .  S
O22          C25   1.263       .  A
O22         V840   1.898   1_455  S
V23         O832   1.897   1_455  S
V23         V840   2.085   1_455  T
V24         O838   1.898       .  S
V24         V839   2.085       .  T
C25         C353   1.484       .  S
C26         C340   1.482       .  S
C27         O836   1.265       .  A
C27         C360   1.475       .  S
C28         O835   1.265       .  A
C28         C330   1.477       .  S
O29          C39   1.265       .  A
O29          V37   1.900       .  S
O30          C40   1.266       .  A
O30         V445   1.899       .  S
O31          C41   1.265       .  A
O31          V37   1.903       .  S
O32          C42   1.264       .  A
O32          V37   1.902       .  S
O33         C450   1.263       .  A
O33          V38   1.893       .  S
O34         C449   1.264       .  A
O34          V38   1.894       .  S
O35          C40   1.263       .  A
O35          V38   1.896       .  S
O36          C39   1.263       .  A
O36         V446   1.895   1_545  S
V37         O438   1.899   1_545  S
V37         V446   2.084   1_545  T
V38         O444   1.895       .  S
V38         V445   2.084       .  T
C39         C343   1.482       .  S
C40         C350   1.485       .  S
C41         O442   1.264   1_545  A
C41         C721   1.484       .  S
C42         O441   1.263   1_545  A
C42         C731   1.478       .  S
O43          C53   1.264       .  A
O43          V51   1.899       .  S
O44          C54   1.264       .  A
O44          V51   1.899       .  S
O45          C55   1.264       .  A
O45          V51   1.900       .  S
O46          C56   1.265       .  A
O46          V51   1.899       .  S
O47          C56   1.263       .  A
O47          V52   1.894       .  S
O48          C55   1.263       .  A
O48          V52   1.894       .  S
O49          C54   1.264       .  A
O49          V52   1.894       .  S
O50          C53   1.264       .  A
O50          V52   1.892       .  S
V51          V52   2.084       .  T
C53         C393   1.481       .  S
C54         C383   1.487       .  S
C55         C290   1.478       .  S
C56         C300   1.480       .  S
O57         C475   1.265       .  A
O57         V881   1.903       .  S
O58         C476   1.265       .  A
O58          V65   1.902       .  S
O59          C69   1.261       .  A
O59          V65   1.889       .  S
O60          C70   1.263       .  A
O60          V65   1.893   1_554  S
O61        C1294   1.266       .  A
O61          V66   1.904   1_554  S
O62        C1293   1.267       .  A
O62          V66   1.903       .  S
O63          C68   1.264       .  A
O63         V882   1.895   1_455  S
O64          C67   1.263       .  A
O64          V66   1.893       .  S
V65         O873   1.903   1_455  S
V65        V1290   2.084   1_445  T
V66         O879   1.895       .  S
V66        V1289   2.084       .  T
C67         O465   1.265       .  A
C67         C263   1.478       .  S
C68         O466   1.265       .  A
C68         C270   1.489       .  S
C69        O1286   1.266   1_445  A
C69         C283   1.482       .  S
C70        O1285   1.265   1_445  A
C70         C403   1.482       .  S
O71          C81   1.261       .  A
O71          V79   1.890   1_556  S
O72          C82   1.261   1_455  A
O72          V79   1.891       .  S
O73          C83   1.266       .  A
O73          V79   1.907       .  S
O74          C84   1.266       .  A
O74         V895   1.906       .  S
O75          C84   1.262       .  A
O75          V80   1.888       .  S
O76          C83   1.263       .  A
O76         V896   1.893   1_455  S
O77         C898   1.267       .  A
O77          V80   1.904       .  S
O78         C897   1.266       .  A
O78          V80   1.903   1_556  S
V79         O890   1.906   1_455  S
V79         V896   2.084   1_455  T
V80         O892   1.893       .  S
V80         V895   2.084       .  T
C81         O894   1.266   1_455  A
C81         C250   1.471       .  S
C82         O893   1.267       .  A
C82         C363   1.482       .  S
C83         C243   1.487       .  S
C84         C230   1.484   1_554  S
O85          C95   1.265       .  A
O85          V93   1.904       .  S
O86          C96   1.265       .  A
O86          V93   1.903       .  S
O87          C97   1.262       .  A
O87          V93   1.896   1_556  S
O88          C98   1.263       .  A
O88          V93   1.897       .  S
O89         C506   1.266   1_545  A
O89          V94   1.902       .  S
O90         C505   1.265   1_545  A
O90          V94   1.897   1_556  S
O91         C504   1.264   1_545  A
O91          V94   1.892       .  S
O92         C503   1.263   1_545  A
O92          V94   1.895       .  S
V93         V502   2.084       .  T
V94         V501   2.084   1_545  T
C95         O500   1.263       .  A
C95         C260   1.480       .  S
C96         O499   1.264       .  A
C96         C273   1.489   1_554  S
C97         O498   1.265       .  A
C97         C223   1.481       .  S
C98         O497   1.266       .  A
C98         C320   1.483       .  S
O99         C109   1.264       .  A
O99         V107   1.892       .  S
O100        C110   1.264       .  A
O100        V107   1.895       .  S
O101        C111   1.264       .  A
O101        V107   1.895   1_554  S
O102        C112   1.263       .  A
O102        V107   1.898       .  S
O103        C112   1.264       .  A
O103        V108   1.900       .  S
O104        C111   1.263       .  A
O104        V108   1.900   1_554  S
O105        C110   1.265       .  A
O105        V108   1.903       .  S
O106        C109   1.265       .  A
O106        V108   1.904       .  S
V107        V108   2.085       .  T
C109        C233   1.482       .  S
C110        C240   1.486       .  S
C111        C303   1.477       .  S
C112        C210   1.475       .  S
O113        C123   1.264       .  A
O113        V529   1.900       .  S
O114        C124   1.264       .  A
O114        V121   1.898       .  S
O115        C125   1.264       .  A
O115        V121   1.897       .  S
O116        C126   1.265       .  A
O116        V121   1.898       .  S
O117       C1350   1.262       .  A
O117        V122   1.894       .  S
O118       C1349   1.263       .  A
O118        V122   1.894       .  S
O119        C940   1.265       .  A
O119        V530   1.899   1_545  S
O120        C939   1.264       .  A
O120        V122   1.895       .  S
V121        O521   1.899   1_545  S
V121       V1346   2.085   1_445  T
V122        O527   1.899       .  S
V122       V1345   2.085       .  T
C123        O936   1.264   1_455  A
C123        C193   1.480       .  S
C124        O935   1.265   1_455  A
C124        C200   1.484   1_455  S
C125       O1342   1.263   1_445  A
C125        C280   1.472       .  S
C126       O1341   1.262   1_445  A
C126        C373   1.483       .  S
O127        C953   1.264       .  A
O127        V135   1.899       .  S
O128        C954   1.264       .  A
O128        V135   1.901       .  S
O129        C139   1.263       .  A
O129        V135   1.898       .  S
O130        C140   1.265       .  A
O130        V135   1.897       .  S
O131        C956   1.264   1_455  A
O131        V136   1.898       .  S
O132        C955   1.265   1_455  A
O132        V136   1.898       .  S
O133        C138   1.265   1_455  A
O133        V136   1.896       .  S
O134        C137   1.264   1_455  A
O134        V136   1.896       .  S
V135        V952   2.084       .  T
V136        V951   2.084   1_455  T
C137        O943   1.264       .  A
C137        C190   1.480       .  S
C138        O944   1.264       .  A
C138        C203   1.484       .  S
C139        O948   1.265       .  A
C139        C253   1.486       .  S
C140        O947   1.264       .  A
C140        C333   1.482       .  S
O141        C559   1.263   1_545  A
O141        V149   1.897       .  S
O142        C560   1.263   1_545  A
O142        V149   1.896       .  S
O143        C153   1.264       .  A
O143        V149   1.892       .  S
O144        C154   1.262       .  A
O144        V557   1.895       .  S
O145        C154   1.266       .  A
O145        V150   1.900       .  S
O146        C153   1.264       .  A
O146        V558   1.899   1_545  S
O147        C152   1.264       .  A
O147        V150   1.898       .  S
O148        C151   1.264       .  A
O148        V150   1.898       .  S
V149        O552   1.895   1_545  S
V149        V558   2.085   1_545  T
V150        O554   1.900       .  S
V150        V557   2.085       .  T
C151        O549   1.263       .  A
C151        C220   1.474       .  S
C152        O550   1.264       .  A
C152        C310   1.477       .  S
C153        C180   1.482       .  S
C154        C170   1.486       .  S
O155        C165   1.262       .  A
O155        V163   1.895       .  S
O156        C166   1.264       .  A
O156        V163   1.894       .  S
O157        C167   1.264       .  A
O157        V163   1.895       .  S
O158        C168   1.262       .  A
O158        V163   1.893       .  S
O159        C168   1.266       .  A
O159        V164   1.899       .  S
O160        C167   1.264       .  A
O160        V164   1.898       .  S
O161        C166   1.264       .  A
O161        V164   1.902       .  S
O162        C165   1.266       .  A
O162        V164   1.901       .  S
V163        V164   2.084       .  T
C165        C213   1.487       .  S
C166        C293   1.479       .  S
C167        C183   1.481       .  S
C168        C173   1.485       .  S
C169        C170   1.405       .  A
C169        C174   1.397       .  A
C169        H176   1.084       .  S
C170        C171   1.416       .  A
C171        C172   1.398       .  A
C171       Br178   1.923       .  S
C172        C173   1.405       .  A
C172        H177   1.084       .  S
C173        C174   1.415       .  A
C174       Br175   1.923       .  S
C179        C180   1.406       .  A
C179        C184   1.396       .  A
C179        H186   1.084       .  S
C180        C181   1.414       .  A
C181        C182   1.398       .  A
C181       Br188   1.922       .  S
C182        C183   1.406       .  A
C182        H187   1.084       .  S
C183        C184   1.412       .  A
C184       Br185   1.922       .  S
C189        C190   1.405   1_455  A
C189        C194   1.398       .  A
C189        H196   1.084       .  S
C190       C1007   1.412       .  A
C191        C192   1.398       .  A
C191       C1006   1.412       .  A
C191       Br198   1.922       .  S
C192       C1009   1.405       .  A
C192        H197   1.083       .  S
C193        C194   1.413       .  A
C193       C1008   1.405   1_455  A
C194       Br195   1.922       .  S
C199        C204   1.400       .  A
C199       C1016   1.406       .  A
C199        H206   1.085       .  S
C200        C201   1.414   1_655  A
C200       C1015   1.406       .  A
C201        C202   1.397       .  A
C201       Br208   1.922       .  S
C202        C203   1.405   1_455  A
C202        H207   1.085       .  S
C203       C1020   1.414       .  A
C204       C1019   1.414       .  A
C204       Br205   1.922       .  S
C209        C210   1.401       .  A
C209        C214   1.400       .  A
C209        H216   1.083       .  S
C210        C211   1.408       .  A
C211        C212   1.398       .  A
C211       Br218   1.921       .  S
C212        C213   1.408       .  A
C212        H217   1.083       .  S
C213        C214   1.418       .  A
C214       Br215   1.923       .  S
C219        C220   1.403       .  A
C219        C224   1.399       .  A
C219        H226   1.082       .  S
C220        C629   1.409       .  A
C221        C222   1.396       .  A
C221        C628   1.409   1_545  A
C221       Br228   1.921       .  S
C222        C631   1.406   1_545  A
C222        H227   1.082       .  S
C223        C224   1.416       .  A
C223        C630   1.406       .  A
C224       Br225   1.923       .  S
C229        C230   1.407   1_554  A
C229        C234   1.398       .  A
C229        H236   1.084       .  S
C230        C231   1.413       .  A
C231        C232   1.398       .  A
C231       Br238   1.921       .  S
C232        C233   1.406       .  A
C232        H237   1.084       .  S
C233        C234   1.412   1_556  A
C234       Br235   1.921       .  S
C239        C240   1.407   1_554  A
C239        C244   1.400       .  A
C239        H246   1.084       .  S
C240        C241   1.413       .  A
C241        C242   1.399       .  A
C241       Br248   1.923       .  S
C242        C243   1.408   1_556  A
C242        H247   1.084       .  S
C243        C244   1.413       .  A
C244       Br245   1.922       .  S
C249        C254   1.399       .  A
C249       C1066   1.400       .  A
C249        H256   1.083       .  S
C250        C251   1.408       .  A
C250       C1065   1.400   1_455  A
C251        C252   1.398       .  A
C251       Br258   1.922       .  S
C252       C1069   1.408   1_455  A
C252        H257   1.082       .  S
C253        C254   1.418       .  A
C253       C1068   1.408       .  A
C254       Br255   1.922       .  S
C259        C264   1.400       .  A
C259        C668   1.407   1_546  A
C259        H266   1.084       .  S
C260        C261   1.411       .  A
C260        C667   1.406   1_554  A
C261        C262   1.398       .  A
C261       Br268   1.920       .  S
C262        C263   1.405   1_554  A
C262        H267   1.084       .  S
C263        C672   1.410       .  A
C264        C671   1.411       .  A
C264       Br265   1.921       .  S
C269        C270   1.408       .  A
C269        C274   1.400       .  A
C269        H276   1.085       .  S
C270        C679   1.414       .  A
C271        C272   1.397   1_556  A
C271        C678   1.415   1_545  A
C271       Br278   1.923       .  S
C272        C681   1.407   1_544  A
C272        H277   1.085       .  S
C273        C274   1.415       .  A
C273        C680   1.407       .  A
C274       Br275   1.924       .  S
C279        C280   1.401       .  A
C279        C284   1.397       .  A
C279        H286   1.083       .  S
C280       C1505   1.409   1_445  A
C281        C282   1.397       .  A
C281       C1504   1.409       .  A
C281       Br288   1.921       .  S
C282       C1507   1.406       .  A
C282        H287   1.082       .  S
C283        C284   1.417       .  A
C283       C1506   1.406   1_445  A
C284       Br285   1.924       .  S
C289        C290   1.405       .  A
C289        C294   1.401       .  A
C289        H296   1.083       .  S
C290        C291   1.412       .  A
C291        C292   1.396       .  A
C291       Br298   1.923       .  S
C292        C293   1.404       .  A
C292        H297   1.083       .  S
C293        C294   1.412       .  A
C294       Br295   1.921       .  S
C299        C300   1.406       .  A
C299        C304   1.399       .  A
C299        H306   1.083       .  S
C300        C301   1.413       .  A
C301        C302   1.396       .  A
C301       Br308   1.922       .  S
C302        C303   1.403       .  A
C302        H307   1.083       .  S
C303        C304   1.412       .  A
C304       Br305   1.919       .  S
C309        C314   1.400       .  A
C309        C718   1.404   1_545  A
C309        H316   1.084       .  S
C310        C311   1.409       .  A
C310        C717   1.404       .  A
C311        C312   1.398       .  A
C311       Br318   1.922       .  S
C312        C313   1.407       .  A
C312        H317   1.083       .  S
C313        C449   1.484       .  S
C313        C722   1.415       .  A
C314        C721   1.415       .  A
C314       Br315   1.922       .  S
C319        C324   1.400       .  A
C319        C728   1.406   1_545  A
C319        H326   1.083       .  S
C320        C321   1.415       .  A
C320        C727   1.407       .  A
C321        C322   1.398       .  A
C321       Br328   1.922       .  S
C322        C323   1.403       .  A
C322        H327   1.083       .  S
C323        C450   1.477       .  S
C323        C732   1.409       .  A
C324        C731   1.411       .  A
C324       Br325   1.921       .  S
C329        C330   1.404   1_455  A
C329        C334   1.398       .  A
C329        H336   1.083       .  S
C330       C1147   1.409       .  A
C331        C332   1.398       .  A
C331       C1146   1.409       .  A
C331       Br338   1.921       .  S
C332        C333   1.407       .  A
C332        H337   1.083       .  S
C333       C1150   1.414       .  A
C334       C1149   1.414   1_455  A
C334       Br335   1.923       .  S
C339        C340   1.403       .  A
C339        C344   1.396       .  A
C339        H346   1.084       .  S
C340        C341   1.414       .  A
C341        C342   1.400       .  A
C341       Br348   1.923       .  S
C342        C343   1.406       .  A
C342        H347   1.085       .  S
C343        C344   1.414       .  A
C344       Br345   1.922       .  S
C349        C350   1.405       .  A
C349        C354   1.398       .  A
C349        H356   1.084       .  S
C350        C351   1.415       .  A
C351        C352   1.399       .  A
C351       Br358   1.923       .  S
C352        C353   1.405       .  A
C352        H357   1.084       .  S
C353        C354   1.414       .  A
C354       Br355   1.923       .  S
C359        C364   1.400       .  A
C359       C1176   1.402       .  A
C359        H366   1.083       .  S
C360        C361   1.411       .  A
C360       C1175   1.402   1_655  A
C361        C362   1.396       .  A
C361       Br368   1.922       .  S
C362        C363   1.403       .  A
C362        H367   1.083       .  S
C363       C1180   1.417   1_655  A
C364       C1179   1.417       .  A
C364       Br365   1.923       .  S
C369        C374   1.397       .  A
C369       C1594   1.401   1_565  A
C369        H376   1.083       .  S
C370        C371   1.410       .  A
C370       C1593   1.401   1_455  A
C371        C372   1.399       .  A
C371       Br378   1.922       .  S
C372        C781   1.407       .  A
C372        H377   1.082       .  S
C373        C780   1.407       .  A
C373       C1190   1.416   1_445  A
C374       C1189   1.416   1_565  A
C374       Br375   1.923       .  S
C379        C380   1.407       .  A
C379        C384   1.397       .  A
C379        H386   1.083       .  S
C380        C381   1.415       .  A
C381        C382   1.399       .  A
C381       Br388   1.923       .  S
C382        C383   1.407       .  A
C382        H387   1.083       .  S
C383        C384   1.414       .  A
C384       Br385   1.923       .  S
C389        C390   1.406       .  A
C389        C394   1.397       .  A
C389        H396   1.083       .  S
C390        C391   1.413       .  A
C391        C392   1.397       .  A
C391       Br398   1.922       .  S
C392        C393   1.406       .  A
C392        H397   1.084       .  S
C393        C394   1.413       .  A
C394       Br395   1.923       .  S
C399        C404   1.398       .  A
C399       C1624   1.405       .  A
C399        H406   1.083       .  S
C400        C401   1.410       .  A
C400       C1623   1.405   1_445  A
C401        C402   1.398       .  A
C401       Br408   1.922       .  S
C402        C403   1.407       .  A
C402        H407   1.083       .  S
C403       C1628   1.412   1_445  A
C404       C1627   1.412       .  A
C404       Br405   1.921       .  S
O409        C419   1.265       .  A
O409       V1233   1.894       .  S
O410        C420   1.264       .  A
O411        C421   1.263   1_565  A
O411        V417   1.896       .  S
O412        V417   1.894       .  S
O413       C1238   1.264       .  A
O413        V418   1.901       .  S
O414        C829   1.265       .  A
O414        V418   1.899       .  S
O415        C420   1.264       .  A
O415       V1234   1.899   1_455  S
O416        C419   1.264       .  A
V417       O1225   1.894   1_455  S
V417        V826   2.084   1_465  T
V418       O1231   1.899       .  S
V418        V825   2.084       .  T
C419        C788   1.488       .  S
C420        C798   1.482       .  S
C421        O822   1.265   1_455  A
C421        C778   1.474       .  S
C422       O1229   1.264   1_455  A
C422        C808   1.478       .  S
O423        C433   1.265       .  A
O423        V431   1.899       .  S
O424        C434   1.266       .  A
O424       V1247   1.897       .  S
O425        C435   1.261   1_455  A
O425        V431   1.888       .  S
O426        C436   1.263   1_455  A
O426        V431   1.893       .  S
O427       C1252   1.265       .  A
O427        V432   1.903       .  S
O428       C1251   1.266       .  A
O428        V432   1.904       .  S
O429        C434   1.263       .  A
O429        V432   1.897       .  S
O430        C433   1.263       .  A
O430       V1248   1.897   1_455  S
V431       O1240   1.897   1_455  S
V431       V1248   2.085   1_455  T
V432       O1246   1.897       .  S
V432       V1247   2.085       .  T
C433        C761   1.484       .  S
C434        C748   1.481       .  S
C435       O1244   1.266       .  A
C435        C768   1.478       .  S
C436       O1243   1.265       .  A
C436        C738   1.476       .  S
O437        C447   1.265       .  A
O437        V445   1.900       .  S
O438        C448   1.266       .  A
O439        C449   1.265       .  A
O439        V445   1.904       .  S
O440        C450   1.265       .  A
O440        V445   1.903       .  S
O441        V446   1.894       .  S
O442        V446   1.895       .  S
O443        C448   1.263       .  A
O443        V446   1.897       .  S
O444        C447   1.263       .  A
C447        C751   1.482       .  S
C448        C758   1.485       .  S
O451        C461   1.263       .  A
O451        V459   1.898       .  S
O452        C462   1.264       .  A
O452        V459   1.900       .  S
O453        C463   1.265       .  A
O453        V459   1.900       .  S
O454        C464   1.265       .  A
O454        V459   1.900       .  S
O455        C464   1.262       .  A
O455        V460   1.892       .  S
O456        C463   1.262       .  A
O456        V460   1.894       .  S
O457        C462   1.264       .  A
O457        V460   1.895       .  S
O458        C461   1.264       .  A
O458        V460   1.892       .  S
V459        V460   2.084       .  T
C461        C801   1.481       .  S
C462        C791   1.488       .  S
C463        C698   1.482       .  S
C464        C708   1.480       .  S
O465       V1289   1.903       .  S
O466        V473   1.903       .  S
O467        C477   1.260       .  A
O467        V473   1.888       .  S
O468        C478   1.263       .  A
O468        V473   1.890   1_554  S
O469        C886   1.265   1_565  A
O469        V474   1.903   1_554  S
O470        C885   1.266   1_565  A
O470        V474   1.902       .  S
O471        C476   1.264   1_565  A
O471       V1290   1.896   1_455  S
O472        C475   1.263   1_565  A
O472        V474   1.893       .  S
V473       O1281   1.903   1_455  S
V473        V882   2.084   1_455  T
V474       O1287   1.896       .  S
V474        V881   2.084   1_565  T
C475        C671   1.478       .  S
C476        C678   1.490   1_545  S
C477        O878   1.267   1_455  A
C477        C691   1.482       .  S
C478        O877   1.266   1_455  A
C478        C811   1.481       .  S
O479        C489   1.261       .  A
O479        V487   1.891   1_556  S
O480        C490   1.261   1_455  A
O480        V487   1.892       .  S
O481        C491   1.267       .  A
O481        V487   1.909       .  S
O482        C492   1.266       .  A
O482       V1303   1.906       .  S
O483        C492   1.262       .  A
O483        V488   1.889       .  S
O484        C491   1.263       .  A
O484       V1304   1.893   1_455  S
O485       C1306   1.267       .  A
O485        V488   1.903       .  S
O486       C1305   1.266       .  A
O486        V488   1.903   1_556  S
V487       O1298   1.906   1_455  S
V487       V1304   2.084   1_455  T
V488       O1300   1.893       .  S
V488       V1303   2.084       .  T
C489       O1302   1.266   1_455  A
C489        C658   1.472       .  S
C490       O1301   1.267       .  A
C490        C771   1.480       .  S
C491        C651   1.487       .  S
C492        C638   1.485   1_554  S
O493        C503   1.265       .  A
O493        V501   1.903       .  S
O494        C504   1.265       .  A
O494        V501   1.905       .  S
O495        C505   1.262       .  A
O495        V501   1.895   1_556  S
O496        C506   1.263       .  A
O496        V501   1.896       .  S
O497        V502   1.900       .  S
O498        V502   1.896   1_556  S
O499        V502   1.893       .  S
O500        V502   1.895       .  S
C503        C668   1.480       .  S
C504        C681   1.489   1_554  S
C505        C631   1.482       .  S
C506        C728   1.482       .  S
O507        C517   1.264       .  A
O507        V515   1.893       .  S
O508        C518   1.264       .  A
O508        V515   1.897       .  S
O509        C519   1.264       .  A
O509        V515   1.893   1_554  S
O510        C520   1.263       .  A
O510        V515   1.898       .  S
O511        C520   1.265       .  A
O511        V516   1.900       .  S
O512        C519   1.264       .  A
O512        V516   1.901   1_554  S
O513        C518   1.265       .  A
O513        V516   1.903       .  S
O514        C517   1.265       .  A
O514        V516   1.904       .  S
V515        V516   2.085       .  T
C517        C641   1.483       .  S
C518        C648   1.485       .  S
C519        C711   1.476       .  S
C520        C618   1.474       .  S
O521        C531   1.264       .  A
O522        C532   1.264       .  A
O522        V529   1.899       .  S
O523        C533   1.264       .  A
O523        V529   1.897       .  S
O524        C534   1.265       .  A
O524        V529   1.899       .  S
O525        C942   1.262   1_565  A
O525        V530   1.894       .  S
O526        C941   1.263   1_565  A
O526        V530   1.894       .  S
O527       C1348   1.265       .  A
O528       C1347   1.264       .  A
O528        V530   1.895       .  S
V529        V938   2.085   1_455  T
V530        V937   2.085   1_565  T
C531       O1344   1.264   1_455  A
C531        C601   1.481       .  S
C532       O1343   1.265   1_455  A
C532        C608   1.484   1_455  S
C533        O934   1.263   1_455  A
C533        C688   1.472       .  S
C534        O933   1.262   1_455  A
C534        C781   1.483       .  S
O535       C1361   1.264       .  A
O535        V543   1.899       .  S
O536       C1362   1.264       .  A
O536        V543   1.901       .  S
O537        C547   1.263       .  A
O537        V543   1.899       .  S
O538        C548   1.265       .  A
O538        V543   1.897       .  S
O539       C1364   1.264   1_455  A
O539        V544   1.898       .  S
O540       C1363   1.265   1_455  A
O540        V544   1.899       .  S
O541        C546   1.265   1_455  A
O541        V544   1.896       .  S
O542        C545   1.264   1_455  A
O542        V544   1.895       .  S
V543       V1360   2.084       .  T
V544       V1359   2.084   1_455  T
C545       O1351   1.264       .  A
C545        C598   1.480       .  S
C546       O1352   1.264       .  A
C546        C611   1.483       .  S
C547       O1356   1.265       .  A
C547        C661   1.488       .  S
C548       O1355   1.264       .  A
C548        C741   1.482       .  S
O549        V557   1.897       .  S
O550        V557   1.898       .  S
O551        C561   1.264       .  A
O551        V557   1.891       .  S
O552        C562   1.262       .  A
O553        C562   1.266       .  A
O553        V558   1.899       .  S
O554        C561   1.264       .  A
O555        C560   1.264       .  A
O555        V558   1.898       .  S
O556        C559   1.264       .  A
O556        V558   1.899       .  S
C559        C628   1.474       .  S
C560        C718   1.476       .  S
C561        C588   1.481       .  S
C562        C578   1.486       .  S
O563        C573   1.262       .  A
O563        V571   1.895       .  S
O564        C574   1.264       .  A
O564        V571   1.895       .  S
O565        C575   1.265       .  A
O565        V571   1.898       .  S
O566        C576   1.262       .  A
O566        V571   1.894       .  S
O567        C576   1.265       .  A
O567        V572   1.899       .  S
O568        C575   1.263       .  A
O568        V572   1.898       .  S
O569        C574   1.264       .  A
O569        V572   1.902       .  S
O570        C573   1.266       .  A
O570        V572   1.902       .  S
V571        V572   2.084       .  T
C573        C621   1.488       .  S
C574        C701   1.476       .  S
C575        C591   1.481       .  S
C576        C581   1.485       .  S
C577        C578   1.405       .  A
C577        C582   1.397       .  A
C577        H584   1.084       .  S
C578        C579   1.416       .  A
C579        C580   1.398       .  A
C579       Br586   1.923       .  S
C580        C581   1.405       .  A
C580        H585   1.084       .  S
C581        C582   1.415       .  A
C582       Br583   1.923       .  S
C587        C588   1.405       .  A
C587        C592   1.395       .  A
C587        H594   1.084       .  S
C588        C589   1.413       .  A
C589        C590   1.400       .  A
C589       Br596   1.922       .  S
C590        C591   1.406       .  A
C590        H595   1.084       .  S
C591        C592   1.412       .  A
C592       Br593   1.921       .  S
C597        C598   1.405   1_455  A
C597        C602   1.398       .  A
C597        H604   1.083       .  S
C598       C1415   1.412       .  A
C599       C1414   1.412       .  A
C599        C600   1.398       .  A
C599       Br606   1.922       .  S
C600       C1417   1.405       .  A
C600        H605   1.083       .  S
C601       C1416   1.405   1_455  A
C601        C602   1.413       .  A
C602       Br603   1.922       .  S
C607       C1424   1.406       .  A
C607        C612   1.400       .  A
C607        H614   1.085       .  S
C608       C1423   1.406       .  A
C608        C609   1.414   1_655  A
C609        C610   1.398       .  A
C609       Br616   1.922       .  S
C610        C611   1.405   1_455  A
C610        H615   1.085       .  S
C611       C1428   1.413       .  A
C612       C1427   1.413       .  A
C612       Br613   1.922       .  S
C617        C618   1.400       .  A
C617        C622   1.399       .  A
C617        H624   1.083       .  S
C618        C619   1.408       .  A
C619        C620   1.399       .  A
C619       Br626   1.921       .  S
C620        C621   1.408       .  A
C620        H625   1.083       .  S
C621        C622   1.418       .  A
C622       Br623   1.923       .  S
C627        C628   1.402       .  A
C627        C632   1.399       .  A
C627        H634   1.083       .  S
C629        C630   1.396       .  A
C629       Br636   1.922       .  S
C630        H635   1.082       .  S
C631        C632   1.416       .  A
C632       Br633   1.923       .  S
C637        C638   1.408   1_554  A
C637        C642   1.398       .  A
C637        H644   1.084       .  S
C638        C639   1.413       .  A
C639        C640   1.398       .  A
C639       Br646   1.921       .  S
C640        C641   1.406       .  A
C640        H645   1.084       .  S
C641        C642   1.413   1_556  A
C642       Br643   1.922       .  S
C647        C648   1.407   1_554  A
C647        C652   1.401       .  A
C647        H654   1.085       .  S
C648        C649   1.413       .  A
C649        C650   1.398       .  A
C649       Br656   1.923       .  S
C650        C651   1.407   1_556  A
C650        H655   1.084       .  S
C651        C652   1.413       .  A
C652       Br653   1.921       .  S
C657       C1474   1.400       .  A
C657        C662   1.399       .  A
C657        H664   1.083       .  S
C658       C1473   1.400   1_455  A
C658        C659   1.407       .  A
C659        C660   1.398       .  A
C659       Br666   1.922       .  S
C660       C1477   1.409   1_455  A
C660        H665   1.082       .  S
C661       C1476   1.409       .  A
C661        C662   1.418       .  A
C662       Br663   1.922       .  S
C667        C672   1.399       .  A
C667        H674   1.084       .  S
C668        C669   1.411       .  A
C669        C670   1.397       .  A
C669       Br676   1.919       .  S
C670        C671   1.404   1_564  A
C670        H675   1.084       .  S
C672       Br673   1.921       .  S
C677        C678   1.409       .  A
C677        C682   1.401       .  A
C677        H684   1.085       .  S
C679        C680   1.398       .  A
C679       Br686   1.923       .  S
C680        H685   1.085       .  S
C681        C682   1.415       .  A
C682       Br683   1.923       .  S
C687        C688   1.400       .  A
C687        C692   1.397       .  A
C687        H694   1.083       .  S
C688       C1097   1.409   1_455  A
C689       C1096   1.409   1_565  A
C689        C690   1.397       .  A
C689       Br696   1.921       .  S
C690       C1099   1.406   1_565  A
C690        H695   1.082       .  S
C691       C1098   1.406   1_455  A
C691        C692   1.418       .  A
C692       Br693   1.924       .  S
C697        C698   1.406       .  A
C697        C702   1.399       .  A
C697        H704   1.083       .  S
C698        C699   1.415       .  A
C699        C700   1.397       .  A
C699       Br706   1.923       .  S
C700        C701   1.402       .  A
C700        H705   1.083       .  S
C701        C702   1.409       .  A
C702       Br703   1.917       .  S
C707        C708   1.407       .  A
C707        C712   1.400       .  A
C707        H714   1.083       .  S
C708        C709   1.413       .  A
C709        C710   1.395       .  A
C709       Br716   1.922       .  S
C710        C711   1.402       .  A
C710        H715   1.083       .  S
C711        C712   1.411       .  A
C712       Br713   1.919       .  S
C717        C722   1.400       .  A
C717        H724   1.084       .  S
C718        C719   1.409       .  A
C719        C720   1.397       .  A
C719       Br726   1.922       .  S
C720        C721   1.407   1_565  A
C720        H725   1.083       .  S
C722       Br723   1.921       .  S
C727        C732   1.399       .  A
C727        H734   1.083       .  S
C728        C729   1.414       .  A
C729        C730   1.397       .  A
C729       Br736   1.921       .  S
C730        C731   1.403   1_565  A
C730        H735   1.083       .  S
C732       Br733   1.921       .  S
C737        C738   1.403   1_455  A
C737        C742   1.398       .  A
C737        H744   1.083       .  S
C738       C1555   1.409       .  A
C739       C1554   1.409       .  A
C739        C740   1.398       .  A
C739       Br746   1.921       .  S
C740        C741   1.407       .  A
C740        H745   1.083       .  S
C741       C1558   1.414       .  A
C742       C1557   1.414   1_455  A
C742       Br743   1.923       .  S
C747        C748   1.403       .  A
C747        C752   1.395       .  A
C747        H754   1.084       .  S
C748        C749   1.414       .  A
C749        C750   1.400       .  A
C749       Br756   1.923       .  S
C750        C751   1.406       .  A
C750        H755   1.085       .  S
C751        C752   1.414       .  A
C752       Br753   1.922       .  S
C757        C758   1.405       .  A
C757        C762   1.398       .  A
C757        H764   1.084       .  S
C758        C759   1.415       .  A
C759        C760   1.400       .  A
C759       Br766   1.923       .  S
C760        C761   1.405       .  A
C760        H765   1.084       .  S
C761        C762   1.414       .  A
C762       Br763   1.923       .  S
C767       C1584   1.403       .  A
C767        C772   1.400       .  A
C767        H774   1.083       .  S
C768       C1583   1.403       .  A
C768        C769   1.413       .  A
C769        C770   1.396       .  A
C769       Br776   1.923       .  S
C770        C771   1.402       .  A
C770        H775   1.083       .  S
C771       C1588   1.416       .  A
C772       C1587   1.416       .  A
C772       Br773   1.923       .  S
C777       C1186   1.401       .  A
C777        C782   1.397       .  A
C777        H784   1.083       .  S
C778       C1185   1.401   1_445  A
C778        C779   1.410       .  A
C779        C780   1.399       .  A
C779       Br786   1.922       .  S
C780        H785   1.082       .  S
C781       C1598   1.416   1_455  A
C782       C1597   1.416       .  A
C782       Br783   1.923       .  S
C787        C788   1.406       .  A
C787        C792   1.397       .  A
C787        H794   1.083       .  S
C788        C789   1.415       .  A
C789        C790   1.399       .  A
C789       Br796   1.923       .  S
C790        C791   1.408       .  A
C790        H795   1.083       .  S
C791        C792   1.415       .  A
C792       Br793   1.923       .  S
C797        C798   1.406       .  A
C797        C802   1.397       .  A
C797        H804   1.083       .  S
C798        C799   1.413       .  A
C799        C800   1.397       .  A
C799       Br806   1.922       .  S
C800        C801   1.406       .  A
C800        H805   1.084       .  S
C801        C802   1.413       .  A
C802       Br803   1.923       .  S
C807       C1216   1.405   1_565  A
C807        C812   1.398       .  A
C807        H814   1.083       .  S
C808       C1215   1.405   1_455  A
C808        C809   1.410       .  A
C809        C810   1.398       .  A
C809       Br816   1.922       .  S
C810        C811   1.407       .  A
C810        H815   1.083       .  S
C811       C1220   1.412   1_455  A
C812       C1219   1.412   1_565  A
C812       Br813   1.921       .  S
O817        C827   1.265       .  A
O818        C828   1.264       .  A
O818       V1233   1.894   1_545  S
O819        C829   1.262       .  A
O819        V825   1.896       .  S
O820       C1238   1.263       .  A
O820        V825   1.894       .  S
O821        V826   1.900       .  S
O822        V826   1.898       .  S
O823        C828   1.264       .  A
O824        C827   1.264       .  A
O824       V1234   1.900       .  S
V825       O1226   1.893       .  S
V826       O1232   1.900   1_545  S
C827       C1196   1.487       .  S
C828       C1206   1.482       .  S
C829       C1186   1.475       .  S
C830       O1228   1.264   1_545  A
C830       C1216   1.478       .  S
O831        C841   1.265       .  A
O831        V839   1.899       .  S
O832        C842   1.265       .  A
O833        C843   1.262       .  A
O833        V839   1.889       .  S
O834        C844   1.263       .  A
O834        V839   1.894       .  S
O835        V840   1.903       .  S
O836        V840   1.903       .  S
O837        C842   1.263       .  A
O837        V840   1.898       .  S
O838        C841   1.263       .  A
C841       C1169   1.484       .  S
C842       C1156   1.482       .  S
C843       C1176   1.475       .  S
C844       C1146   1.477       .  S
O845        C855   1.265       .  A
O845        V853   1.900       .  S
O846        C856   1.266       .  A
O846       V1261   1.899       .  S
O847        C857   1.265       .  A
O847        V853   1.903       .  S
O848        C858   1.264       .  A
O848        V853   1.902       .  S
O849       C1266   1.263       .  A
O849        V854   1.893       .  S
O850       C1265   1.264       .  A
O850        V854   1.894       .  S
O851        C856   1.263       .  A
O851        V854   1.896       .  S
O852        C855   1.263       .  A
O852       V1262   1.895   1_545  S
V853       O1254   1.899   1_545  S
V853       V1262   2.084   1_545  T
V854       O1260   1.895       .  S
V854       V1261   2.084       .  T
C855       C1159   1.482       .  S
C856       C1166   1.485       .  S
C857       O1258   1.264   1_545  A
C857       C1537   1.484       .  S
C858       O1257   1.263   1_545  A
C858       C1547   1.478       .  S
O859        C869   1.264       .  A
O859        V867   1.899       .  S
O860        C870   1.264       .  A
O860        V867   1.899       .  S
O861        C871   1.264       .  A
O861        V867   1.900       .  S
O862        C872   1.265       .  A
O862        V867   1.899       .  S
O863        C872   1.263       .  A
O863        V868   1.894       .  S
O864        C871   1.263       .  A
O864        V868   1.894       .  S
O865        C870   1.264       .  A
O865        V868   1.894       .  S
O866        C869   1.264       .  A
O866        V868   1.892       .  S
V867        V868   2.084       .  T
C869       C1209   1.481       .  S
C870       C1199   1.487       .  S
C871       C1106   1.478       .  S
C872       C1116   1.480       .  S
O873       C1291   1.265       .  A
O874       C1292   1.265       .  A
O874        V881   1.902       .  S
O875        C885   1.261       .  A
O875        V881   1.889       .  S
O876        C886   1.263       .  A
O876        V881   1.893   1_554  S
O877        V882   1.904   1_554  S
O878        V882   1.903       .  S
O879        C884   1.264       .  A
O880        C883   1.263       .  A
O880        V882   1.893       .  S
C883       O1281   1.265       .  A
C883       C1079   1.478       .  S
C884       O1282   1.265       .  A
C884       C1086   1.489       .  S
C885       C1099   1.482       .  S
C886       C1219   1.482       .  S
O887        C897   1.261       .  A
O887        V895   1.890   1_556  S
O888        C898   1.261       .  A
O888        V895   1.891       .  S
O889        C899   1.266       .  A
O889        V895   1.907       .  S
O890        C900   1.266       .  A
O891        C900   1.262       .  A
O891        V896   1.888       .  S
O892        C899   1.263       .  A
O893        V896   1.904       .  S
O894        V896   1.903   1_556  S
C897       C1066   1.471       .  S
C898       C1179   1.482       .  S
C899       C1059   1.487       .  S
C900       C1046   1.484   1_554  S
O901        C911   1.265       .  A
O901        V909   1.904       .  S
O902        C912   1.265       .  A
O902        V909   1.903       .  S
O903        C913   1.262       .  A
O903        V909   1.896   1_556  S
O904        C914   1.263       .  A
O904        V909   1.897       .  S
O905       C1322   1.266   1_545  A
O905        V910   1.902       .  S
O906       C1321   1.265   1_545  A
O906        V910   1.897   1_556  S
O907       C1320   1.264   1_545  A
O907        V910   1.892       .  S
O908       C1319   1.263   1_545  A
O908        V910   1.895       .  S
V909       V1318   2.084       .  T
V910       V1317   2.084   1_545  T
C911       O1316   1.263       .  A
C911       C1076   1.480       .  S
C912       O1315   1.264       .  A
C912       C1089   1.489   1_554  S
C913       O1314   1.265       .  A
C913       C1039   1.481       .  S
C914       O1313   1.266       .  A
C914       C1136   1.483       .  S
O915        C925   1.264       .  A
O915        V923   1.892       .  S
O916        C926   1.264       .  A
O916        V923   1.895       .  S
O917        C927   1.264       .  A
O917        V923   1.895   1_554  S
O918        C928   1.263       .  A
O918        V923   1.898       .  S
O919        C928   1.264       .  A
O919        V924   1.900       .  S
O920        C927   1.263       .  A
O920        V924   1.900   1_554  S
O921        C926   1.265       .  A
O921        V924   1.903       .  S
O922        C925   1.265       .  A
O922        V924   1.904       .  S
V923        V924   2.085       .  T
C925       C1049   1.482       .  S
C926       C1056   1.486       .  S
C927       C1119   1.477       .  S
C928       C1026   1.475       .  S
O929        C939   1.264       .  A
O929       V1345   1.900       .  S
O930        C940   1.264       .  A
O930        V937   1.898       .  S
O931        C941   1.264       .  A
O931        V937   1.897       .  S
O932        C942   1.265       .  A
O932        V937   1.898       .  S
O933        V938   1.894       .  S
O934        V938   1.894       .  S
O935       V1346   1.899   1_545  S
O936        V938   1.895       .  S
V937       O1337   1.899   1_545  S
V938       O1343   1.899       .  S
C939       C1009   1.480       .  S
C940       C1016   1.484       .  S
C941       C1096   1.472       .  S
C942       C1189   1.483       .  S
O943        V951   1.899       .  S
O944        V951   1.901       .  S
O945        C955   1.263       .  A
O945        V951   1.898       .  S
O946        C956   1.265       .  A
O946        V951   1.897       .  S
O947        V952   1.898       .  S
O948        V952   1.898       .  S
O949        C954   1.265       .  A
O949        V952   1.896       .  S
O950        C953   1.264       .  A
O950        V952   1.896       .  S
C953       C1006   1.480       .  S
C954       C1019   1.484       .  S
C955       C1069   1.486       .  S
C956       C1149   1.482       .  S
O957       C1375   1.263   1_545  A
O957        V965   1.897       .  S
O958       C1376   1.263   1_545  A
O958        V965   1.896       .  S
O959        C969   1.264       .  A
O959        V965   1.892       .  S
O960        C970   1.262       .  A
O960       V1373   1.895       .  S
O961        C970   1.266       .  A
O961        V966   1.900       .  S
O962        C969   1.264       .  A
O962       V1374   1.899   1_545  S
O963        C968   1.264       .  A
O963        V966   1.898       .  S
O964        C967   1.264       .  A
O964        V966   1.898       .  S
V965       O1368   1.895   1_545  S
V965       V1374   2.085   1_545  T
V966       O1370   1.900       .  S
V966       V1373   2.085       .  T
C967       O1365   1.263       .  A
C967       C1036   1.474       .  S
C968       O1366   1.264       .  A
C968       C1126   1.477       .  S
C969        C996   1.482       .  S
C970        C986   1.486       .  S
O971        C981   1.262       .  A
O971        V979   1.895       .  S
O972        C982   1.264       .  A
O972        V979   1.894       .  S
O973        C983   1.264       .  A
O973        V979   1.895       .  S
O974        C984   1.262       .  A
O974        V979   1.893       .  S
O975        C984   1.266       .  A
O975        V980   1.899       .  S
O976        C983   1.264       .  A
O976        V980   1.898       .  S
O977        C982   1.264       .  A
O977        V980   1.902       .  S
O978        C981   1.266       .  A
O978        V980   1.901       .  S
V979        V980   2.084       .  T
C981       C1029   1.487       .  S
C982       C1109   1.479       .  S
C983        C999   1.481       .  S
C984        C989   1.485       .  S
C985        C986   1.405       .  A
C985        C990   1.397       .  A
C985        H992   1.084       .  S
C986        C987   1.416       .  A
C987        C988   1.398       .  A
C987       Br994   1.923       .  S
C988        C989   1.405       .  A
C988        H993   1.084       .  S
C989        C990   1.415       .  A
C990       Br991   1.923       .  S
C995        C996   1.406       .  A
C995       C1000   1.396       .  A
C995       H1002   1.084       .  S
C996        C997   1.414       .  A
C997        C998   1.398       .  A
C997      Br1004   1.922       .  S
C998        C999   1.406       .  A
C998       H1003   1.084       .  S
C999       C1000   1.412       .  A
C1000     Br1001   1.922       .  S
C1005      C1006   1.405       .  A
C1005      C1010   1.398       .  A
C1005      H1012   1.084       .  S
C1007      C1008   1.398       .  A
C1007     Br1014   1.922       .  S
C1008      H1013   1.083       .  S
C1009      C1010   1.413       .  A
C1010     Br1011   1.922       .  S
C1015      C1020   1.400       .  A
C1015      H1022   1.085       .  S
C1016      C1017   1.414       .  A
C1017      C1018   1.397       .  A
C1017     Br1024   1.922       .  S
C1018      C1019   1.405       .  A
C1018      H1023   1.085       .  S
C1020     Br1021   1.922       .  S
C1025      C1026   1.401       .  A
C1025      C1030   1.400       .  A
C1025      H1032   1.083       .  S
C1026      C1027   1.408       .  A
C1027      C1028   1.398       .  A
C1027     Br1034   1.921       .  S
C1028      C1029   1.408       .  A
C1028      H1033   1.083       .  S
C1029      C1030   1.418       .  A
C1030     Br1031   1.923       .  S
C1035      C1036   1.403       .  A
C1035      C1040   1.399       .  A
C1035      H1042   1.082       .  S
C1036      C1445   1.409       .  A
C1037      C1444   1.409   1_545  A
C1037      C1038   1.396       .  A
C1037     Br1044   1.921       .  S
C1038      C1447   1.406   1_545  A
C1038      H1043   1.082       .  S
C1039      C1446   1.406       .  A
C1039      C1040   1.416       .  A
C1040     Br1041   1.923       .  S
C1045      C1046   1.407   1_554  A
C1045      C1050   1.398       .  A
C1045      H1052   1.084       .  S
C1046      C1047   1.413       .  A
C1047      C1048   1.398       .  A
C1047     Br1054   1.921       .  S
C1048      C1049   1.406       .  A
C1048      H1053   1.084       .  S
C1049      C1050   1.412   1_556  A
C1050     Br1051   1.921       .  S
C1055      C1056   1.407   1_554  A
C1055      C1060   1.400       .  A
C1055      H1062   1.084       .  S
C1056      C1057   1.413       .  A
C1057      C1058   1.399       .  A
C1057     Br1064   1.923       .  S
C1058      C1059   1.408   1_556  A
C1058      H1063   1.084       .  S
C1059      C1060   1.413       .  A
C1060     Br1061   1.922       .  S
C1065      C1070   1.399       .  A
C1065      H1072   1.083       .  S
C1066      C1067   1.408       .  A
C1067      C1068   1.398       .  A
C1067     Br1074   1.922       .  S
C1068      H1073   1.082       .  S
C1069      C1070   1.418       .  A
C1070     Br1071   1.922       .  S
C1075      C1484   1.407   1_546  A
C1075      C1080   1.400       .  A
C1075      H1082   1.084       .  S
C1076      C1483   1.406   1_554  A
C1076      C1077   1.411       .  A
C1077      C1078   1.398       .  A
C1077     Br1084   1.920       .  S
C1078      C1079   1.405   1_554  A
C1078      H1083   1.084       .  S
C1079      C1488   1.410       .  A
C1080      C1487   1.411       .  A
C1080     Br1081   1.921       .  S
C1085      C1086   1.408       .  A
C1085      C1090   1.400       .  A
C1085      H1092   1.085       .  S
C1086      C1495   1.414       .  A
C1087      C1494   1.415   1_545  A
C1087      C1088   1.397   1_556  A
C1087     Br1094   1.923       .  S
C1088      C1497   1.407   1_544  A
C1088      H1093   1.085       .  S
C1089      C1496   1.407       .  A
C1089      C1090   1.415       .  A
C1090     Br1091   1.924       .  S
C1095      C1096   1.401       .  A
C1095      C1100   1.397       .  A
C1095      H1102   1.083       .  S
C1097      C1098   1.397       .  A
C1097     Br1104   1.921       .  S
C1098      H1103   1.082       .  S
C1099      C1100   1.417       .  A
C1100     Br1101   1.924       .  S
C1105      C1106   1.405       .  A
C1105      C1110   1.401       .  A
C1105      H1112   1.083       .  S
C1106      C1107   1.412       .  A
C1107      C1108   1.396       .  A
C1107     Br1114   1.923       .  S
C1108      C1109   1.404       .  A
C1108      H1113   1.083       .  S
C1109      C1110   1.412       .  A
C1110     Br1111   1.921       .  S
C1115      C1116   1.406       .  A
C1115      C1120   1.399       .  A
C1115      H1122   1.083       .  S
C1116      C1117   1.413       .  A
C1117      C1118   1.396       .  A
C1117     Br1124   1.922       .  S
C1118      C1119   1.403       .  A
C1118      H1123   1.083       .  S
C1119      C1120   1.412       .  A
C1120     Br1121   1.919       .  S
C1125      C1534   1.404   1_545  A
C1125      C1130   1.400       .  A
C1125      H1132   1.084       .  S
C1126      C1533   1.404       .  A
C1126      C1127   1.409       .  A
C1127      C1128   1.398       .  A
C1127     Br1134   1.922       .  S
C1128      C1129   1.407       .  A
C1128      H1133   1.083       .  S
C1129      C1265   1.484       .  S
C1129      C1538   1.415       .  A
C1130      C1537   1.415       .  A
C1130     Br1131   1.922       .  S
C1135      C1544   1.406   1_545  A
C1135      C1140   1.400       .  A
C1135      H1142   1.083       .  S
C1136      C1543   1.407       .  A
C1136      C1137   1.415       .  A
C1137      C1138   1.398       .  A
C1137     Br1144   1.922       .  S
C1138      C1139   1.403       .  A
C1138      H1143   1.083       .  S
C1139      C1266   1.477       .  S
C1139      C1548   1.409       .  A
C1140      C1547   1.411       .  A
C1140     Br1141   1.921       .  S
C1145      C1146   1.404       .  A
C1145      C1150   1.398       .  A
C1145      H1152   1.083       .  S
C1147      C1148   1.398       .  A
C1147     Br1154   1.921       .  S
C1148      C1149   1.407       .  A
C1148      H1153   1.083       .  S
C1150     Br1151   1.923       .  S
C1155      C1156   1.403       .  A
C1155      C1160   1.396       .  A
C1155      H1162   1.084       .  S
C1156      C1157   1.414       .  A
C1157      C1158   1.400       .  A
C1157     Br1164   1.923       .  S
C1158      C1159   1.406       .  A
C1158      H1163   1.085       .  S
C1159      C1160   1.414       .  A
C1160     Br1161   1.922       .  S
C1165      C1166   1.405       .  A
C1165      C1170   1.398       .  A
C1165      H1172   1.084       .  S
C1166      C1167   1.415       .  A
C1167      C1168   1.399       .  A
C1167     Br1174   1.923       .  S
C1168      C1169   1.405       .  A
C1168      H1173   1.084       .  S
C1169      C1170   1.414       .  A
C1170     Br1171   1.923       .  S
C1175      C1180   1.400       .  A
C1175      H1182   1.083       .  S
C1176      C1177   1.411       .  A
C1177      C1178   1.396       .  A
C1177     Br1184   1.922       .  S
C1178      C1179   1.403       .  A
C1178      H1183   1.083       .  S
C1180     Br1181   1.923       .  S
C1185      C1190   1.397       .  A
C1185      H1192   1.083       .  S
C1186      C1187   1.410       .  A
C1187      C1188   1.399       .  A
C1187     Br1194   1.922       .  S
C1188      C1597   1.407       .  A
C1188      H1193   1.082       .  S
C1189      C1596   1.407       .  A
C1190     Br1191   1.923       .  S
C1195      C1196   1.407       .  A
C1195      C1200   1.397       .  A
C1195      H1202   1.083       .  S
C1196      C1197   1.415       .  A
C1197      C1198   1.399       .  A
C1197     Br1204   1.923       .  S
C1198      C1199   1.407       .  A
C1198      H1203   1.083       .  S
C1199      C1200   1.414       .  A
C1200     Br1201   1.923       .  S
C1205      C1206   1.406       .  A
C1205      C1210   1.397       .  A
C1205      H1212   1.083       .  S
C1206      C1207   1.413       .  A
C1207      C1208   1.397       .  A
C1207     Br1214   1.922       .  S
C1208      C1209   1.406       .  A
C1208      H1213   1.084       .  S
C1209      C1210   1.413       .  A
C1210     Br1211   1.923       .  S
C1215      C1220   1.398       .  A
C1215      H1222   1.083       .  S
C1216      C1217   1.410       .  A
C1217      C1218   1.398       .  A
C1217     Br1224   1.922       .  S
C1218      C1219   1.407       .  A
C1218      H1223   1.083       .  S
C1220     Br1221   1.921       .  S
O1225      C1235   1.265       .  A
O1226      C1236   1.264       .  A
O1227      C1237   1.263   1_565  A
O1227      V1233   1.896       .  S
O1228      V1233   1.894       .  S
O1229      V1234   1.901       .  S
O1230      V1234   1.899       .  S
O1231      C1236   1.264       .  A
O1232      C1235   1.264       .  A
C1235      C1604   1.488       .  S
C1236      C1614   1.482       .  S
C1237      C1594   1.474       .  S
C1238      C1624   1.478       .  S
O1239      C1249   1.265       .  A
O1239      V1247   1.899       .  S
O1240      C1250   1.266       .  A
O1241      C1251   1.261       .  A
O1241      V1247   1.888       .  S
O1242      C1252   1.263       .  A
O1242      V1247   1.893       .  S
O1243      V1248   1.903       .  S
O1244      V1248   1.904       .  S
O1245      C1250   1.263       .  A
O1245      V1248   1.897       .  S
O1246      C1249   1.263       .  A
C1249      C1577   1.484       .  S
C1250      C1564   1.481       .  S
C1251      C1584   1.478       .  S
C1252      C1554   1.476       .  S
O1253      C1263   1.265       .  A
O1253      V1261   1.900       .  S
O1254      C1264   1.266       .  A
O1255      C1265   1.265       .  A
O1255      V1261   1.904       .  S
O1256      C1266   1.265       .  A
O1256      V1261   1.903       .  S
O1257      V1262   1.894       .  S
O1258      V1262   1.895       .  S
O1259      C1264   1.263       .  A
O1259      V1262   1.897       .  S
O1260      C1263   1.263       .  A
C1263      C1567   1.482       .  S
C1264      C1574   1.485       .  S
O1267      C1277   1.263       .  A
O1267      V1275   1.898       .  S
O1268      C1278   1.264       .  A
O1268      V1275   1.900       .  S
O1269      C1279   1.265       .  A
O1269      V1275   1.900       .  S
O1270      C1280   1.265       .  A
O1270      V1275   1.900       .  S
O1271      C1280   1.262       .  A
O1271      V1276   1.892       .  S
O1272      C1279   1.262       .  A
O1272      V1276   1.894       .  S
O1273      C1278   1.264       .  A
O1273      V1276   1.895       .  S
O1274      C1277   1.264       .  A
O1274      V1276   1.892       .  S
V1275      V1276   2.084       .  T
C1277      C1617   1.481       .  S
C1278      C1607   1.488       .  S
C1279      C1514   1.482       .  S
C1280      C1524   1.480       .  S
O1282      V1289   1.903       .  S
O1283      C1293   1.260       .  A
O1283      V1289   1.888       .  S
O1284      C1294   1.263       .  A
O1284      V1289   1.890   1_554  S
O1285      V1290   1.903   1_554  S
O1286      V1290   1.902       .  S
O1287      C1292   1.264   1_565  A
O1288      C1291   1.263   1_565  A
O1288      V1290   1.893       .  S
C1291      C1487   1.478       .  S
C1292      C1494   1.490   1_545  S
C1293      C1507   1.482       .  S
C1294      C1627   1.481       .  S
O1295      C1305   1.261       .  A
O1295      V1303   1.891   1_556  S
O1296      C1306   1.261       .  A
O1296      V1303   1.892       .  S
O1297      C1307   1.267       .  A
O1297      V1303   1.909       .  S
O1298      C1308   1.266       .  A
O1299      C1308   1.262       .  A
O1299      V1304   1.889       .  S
O1300      C1307   1.263       .  A
O1301      V1304   1.903       .  S
O1302      V1304   1.903   1_556  S
C1305      C1474   1.472       .  S
C1306      C1587   1.480       .  S
C1307      C1467   1.487       .  S
C1308      C1454   1.485   1_554  S
O1309      C1319   1.265       .  A
O1309      V1317   1.903       .  S
O1310      C1320   1.265       .  A
O1310      V1317   1.905       .  S
O1311      C1321   1.262       .  A
O1311      V1317   1.895   1_556  S
O1312      C1322   1.263       .  A
O1312      V1317   1.896       .  S
O1313      V1318   1.900       .  S
O1314      V1318   1.896   1_556  S
O1315      V1318   1.893       .  S
O1316      V1318   1.895       .  S
C1319      C1484   1.480       .  S
C1320      C1497   1.489   1_554  S
C1321      C1447   1.482       .  S
C1322      C1544   1.482       .  S
O1323      C1333   1.264       .  A
O1323      V1331   1.893       .  S
O1324      C1334   1.264       .  A
O1324      V1331   1.897       .  S
O1325      C1335   1.264       .  A
O1325      V1331   1.893   1_554  S
O1326      C1336   1.263       .  A
O1326      V1331   1.898       .  S
O1327      C1336   1.265       .  A
O1327      V1332   1.900       .  S
O1328      C1335   1.264       .  A
O1328      V1332   1.901   1_554  S
O1329      C1334   1.265       .  A
O1329      V1332   1.903       .  S
O1330      C1333   1.265       .  A
O1330      V1332   1.904       .  S
V1331      V1332   2.085       .  T
C1333      C1457   1.483       .  S
C1334      C1464   1.485       .  S
C1335      C1527   1.476       .  S
C1336      C1434   1.474       .  S
O1337      C1347   1.264       .  A
O1338      C1348   1.264       .  A
O1338      V1345   1.899       .  S
O1339      C1349   1.264       .  A
O1339      V1345   1.897       .  S
O1340      C1350   1.265       .  A
O1340      V1345   1.899       .  S
O1341      V1346   1.894       .  S
O1342      V1346   1.894       .  S
O1344      V1346   1.895       .  S
C1347      C1417   1.481       .  S
C1348      C1424   1.484       .  S
C1349      C1504   1.472       .  S
C1350      C1597   1.483       .  S
O1351      V1359   1.899       .  S
O1352      V1359   1.901       .  S
O1353      C1363   1.263       .  A
O1353      V1359   1.899       .  S
O1354      C1364   1.265       .  A
O1354      V1359   1.897       .  S
O1355      V1360   1.898       .  S
O1356      V1360   1.899       .  S
O1357      C1362   1.265       .  A
O1357      V1360   1.896       .  S
O1358      C1361   1.264       .  A
O1358      V1360   1.895       .  S
C1361      C1414   1.480       .  S
C1362      C1427   1.483       .  S
C1363      C1477   1.488       .  S
C1364      C1557   1.482       .  S
O1365      V1373   1.897       .  S
O1366      V1373   1.897       .  S
O1367      C1377   1.264       .  A
O1367      V1373   1.891       .  S
O1368      C1378   1.262       .  A
O1369      C1378   1.266       .  A
O1369      V1374   1.899       .  S
O1370      C1377   1.264       .  A
O1371      C1376   1.264       .  A
O1371      V1374   1.898       .  S
O1372      C1375   1.264       .  A
O1372      V1374   1.899       .  S
C1375      C1444   1.474       .  S
C1376      C1534   1.476       .  S
C1377      C1404   1.481       .  S
C1378      C1394   1.486       .  S
O1379      C1389   1.262       .  A
O1379      V1387   1.895       .  S
O1380      C1390   1.264       .  A
O1380      V1387   1.895       .  S
O1381      C1391   1.265       .  A
O1381      V1387   1.898       .  S
O1382      C1392   1.262       .  A
O1382      V1387   1.894       .  S
O1383      C1392   1.265       .  A
O1383      V1388   1.899       .  S
O1384      C1391   1.263       .  A
O1384      V1388   1.898       .  S
O1385      C1390   1.264       .  A
O1385      V1388   1.902       .  S
O1386      C1389   1.266       .  A
O1386      V1388   1.902       .  S
V1387      V1388   2.084       .  T
C1389      C1437   1.488       .  S
C1390      C1517   1.476       .  S
C1391      C1407   1.481       .  S
C1392      C1397   1.485       .  S
C1393      C1394   1.405       .  A
C1393      C1398   1.397       .  A
C1393      H1400   1.084       .  S
C1394      C1395   1.416       .  A
C1395      C1396   1.398       .  A
C1395     Br1402   1.923       .  S
C1396      C1397   1.405       .  A
C1396      H1401   1.084       .  S
C1397      C1398   1.415       .  A
C1398     Br1399   1.923       .  S
C1403      C1404   1.405       .  A
C1403      C1408   1.395       .  A
C1403      H1410   1.084       .  S
C1404      C1405   1.413       .  A
C1405      C1406   1.400       .  A
C1405     Br1412   1.922       .  S
C1406      C1407   1.406       .  A
C1406      H1411   1.084       .  S
C1407      C1408   1.412       .  A
C1408     Br1409   1.921       .  S
C1413      C1414   1.405       .  A
C1413      C1418   1.398       .  A
C1413      H1420   1.083       .  S
C1415      C1416   1.398       .  A
C1415     Br1422   1.922       .  S
C1416      H1421   1.083       .  S
C1417      C1418   1.413       .  A
C1418     Br1419   1.922       .  S
C1423      C1428   1.400       .  A
C1423      H1430   1.085       .  S
C1424      C1425   1.414       .  A
C1425      C1426   1.398       .  A
C1425     Br1432   1.922       .  S
C1426      C1427   1.405       .  A
C1426      H1431   1.085       .  S
C1428     Br1429   1.922       .  S
C1433      C1434   1.400       .  A
C1433      C1438   1.399       .  A
C1433      H1440   1.083       .  S
C1434      C1435   1.408       .  A
C1435      C1436   1.399       .  A
C1435     Br1442   1.921       .  S
C1436      C1437   1.408       .  A
C1436      H1441   1.083       .  S
C1437      C1438   1.418       .  A
C1438     Br1439   1.923       .  S
C1443      C1444   1.402       .  A
C1443      C1448   1.399       .  A
C1443      H1450   1.083       .  S
C1445      C1446   1.396       .  A
C1445     Br1452   1.922       .  S
C1446      H1451   1.082       .  S
C1447      C1448   1.416       .  A
C1448     Br1449   1.923       .  S
C1453      C1454   1.408   1_554  A
C1453      C1458   1.398       .  A
C1453      H1460   1.084       .  S
C1454      C1455   1.413       .  A
C1455      C1456   1.398       .  A
C1455     Br1462   1.921       .  S
C1456      C1457   1.406       .  A
C1456      H1461   1.084       .  S
C1457      C1458   1.413   1_556  A
C1458     Br1459   1.922       .  S
C1463      C1464   1.407   1_554  A
C1463      C1468   1.401       .  A
C1463      H1470   1.085       .  S
C1464      C1465   1.413       .  A
C1465      C1466   1.398       .  A
C1465     Br1472   1.923       .  S
C1466      C1467   1.407   1_556  A
C1466      H1471   1.084       .  S
C1467      C1468   1.413       .  A
C1468     Br1469   1.921       .  S
C1473      C1478   1.399       .  A
C1473      H1480   1.083       .  S
C1474      C1475   1.407       .  A
C1475      C1476   1.398       .  A
C1475     Br1482   1.922       .  S
C1476      H1481   1.082       .  S
C1477      C1478   1.418       .  A
C1478     Br1479   1.922       .  S
C1483      C1488   1.399       .  A
C1483      H1490   1.084       .  S
C1484      C1485   1.411       .  A
C1485      C1486   1.397       .  A
C1485     Br1492   1.919       .  S
C1486      C1487   1.404   1_564  A
C1486      H1491   1.084       .  S
C1488     Br1489   1.921       .  S
C1493      C1494   1.409       .  A
C1493      C1498   1.401       .  A
C1493      H1500   1.085       .  S
C1495      C1496   1.398       .  A
C1495     Br1502   1.923       .  S
C1496      H1501   1.085       .  S
C1497      C1498   1.415       .  A
C1498     Br1499   1.923       .  S
C1503      C1504   1.400       .  A
C1503      C1508   1.397       .  A
C1503      H1510   1.083       .  S
C1505      C1506   1.397       .  A
C1505     Br1512   1.921       .  S
C1506      H1511   1.082       .  S
C1507      C1508   1.418       .  A
C1508     Br1509   1.924       .  S
C1513      C1514   1.406       .  A
C1513      C1518   1.399       .  A
C1513      H1520   1.083       .  S
C1514      C1515   1.415       .  A
C1515      C1516   1.397       .  A
C1515     Br1522   1.923       .  S
C1516      C1517   1.402       .  A
C1516      H1521   1.083       .  S
C1517      C1518   1.409       .  A
C1518     Br1519   1.917       .  S
C1523      C1524   1.407       .  A
C1523      C1528   1.400       .  A
C1523      H1530   1.083       .  S
C1524      C1525   1.413       .  A
C1525      C1526   1.395       .  A
C1525     Br1532   1.922       .  S
C1526      C1527   1.402       .  A
C1526      H1531   1.083       .  S
C1527      C1528   1.411       .  A
C1528     Br1529   1.919       .  S
C1533      C1538   1.400       .  A
C1533      H1540   1.084       .  S
C1534      C1535   1.409       .  A
C1535      C1536   1.397       .  A
C1535     Br1542   1.922       .  S
C1536      C1537   1.407   1_565  A
C1536      H1541   1.083       .  S
C1538     Br1539   1.921       .  S
C1543      C1548   1.399       .  A
C1543      H1550   1.083       .  S
C1544      C1545   1.414       .  A
C1545      C1546   1.397       .  A
C1545     Br1552   1.921       .  S
C1546      C1547   1.403   1_565  A
C1546      H1551   1.083       .  S
C1548     Br1549   1.921       .  S
C1553      C1554   1.403       .  A
C1553      C1558   1.398       .  A
C1553      H1560   1.083       .  S
C1555      C1556   1.398       .  A
C1555     Br1562   1.921       .  S
C1556      C1557   1.407       .  A
C1556      H1561   1.083       .  S
C1558     Br1559   1.923       .  S
C1563      C1564   1.403       .  A
C1563      C1568   1.395       .  A
C1563      H1570   1.084       .  S
C1564      C1565   1.414       .  A
C1565      C1566   1.400       .  A
C1565     Br1572   1.923       .  S
C1566      C1567   1.406       .  A
C1566      H1571   1.085       .  S
C1567      C1568   1.414       .  A
C1568     Br1569   1.922       .  S
C1573      C1574   1.405       .  A
C1573      C1578   1.398       .  A
C1573      H1580   1.084       .  S
C1574      C1575   1.415       .  A
C1575      C1576   1.400       .  A
C1575     Br1582   1.923       .  S
C1576      C1577   1.405       .  A
C1576      H1581   1.084       .  S
C1577      C1578   1.414       .  A
C1578     Br1579   1.923       .  S
C1583      C1588   1.400       .  A
C1583      H1590   1.083       .  S
C1584      C1585   1.413       .  A
C1585      C1586   1.396       .  A
C1585     Br1592   1.923       .  S
C1586      C1587   1.402       .  A
C1586      H1591   1.083       .  S
C1588     Br1589   1.923       .  S
C1593      C1598   1.397       .  A
C1593      H1600   1.083       .  S
C1594      C1595   1.410       .  A
C1595      C1596   1.399       .  A
C1595     Br1602   1.922       .  S
C1596      H1601   1.082       .  S
C1598     Br1599   1.923       .  S
C1603      C1604   1.406       .  A
C1603      C1608   1.397       .  A
C1603      H1610   1.083       .  S
C1604      C1605   1.415       .  A
C1605      C1606   1.399       .  A
C1605     Br1612   1.923       .  S
C1606      C1607   1.408       .  A
C1606      H1611   1.083       .  S
C1607      C1608   1.415       .  A
C1608     Br1609   1.923       .  S
C1613      C1614   1.406       .  A
C1613      C1618   1.397       .  A
C1613      H1620   1.083       .  S
C1614      C1615   1.413       .  A
C1615      C1616   1.397       .  A
C1615     Br1622   1.922       .  S
C1616      C1617   1.406       .  A
C1616      H1621   1.084       .  S
C1617      C1618   1.413       .  A
C1618     Br1619   1.923       .  S
C1623      C1628   1.398       .  A
C1623      H1630   1.083       .  S
C1624      C1625   1.410       .  A
C1625      C1626   1.398       .  A
C1625     Br1632   1.922       .  S
C1626      C1627   1.407       .  A
C1626      H1631   1.083       .  S
C1628     Br1629   1.921       .  S
