geometry optimzed in LAMMPS
_audit_creation_date              2020-11-30 
_audit_creation_method            'lammps2cif' 
_symmetry_space_group_name_H-M    'P1' 
_symmetry_Int_Tables_number       1 
_symmetry_cell_setting            triclinic 
loop_ 
_symmetry_equiv_pos_as_xyz 
  x,y,z 
_cell_length_a                    43.6095297 
_cell_length_b                    43.58667626614515 
_cell_length_c                    65.27165396529503 
_cell_angle_alpha                 90.04775373580746 
_cell_angle_beta                  89.74866736856708 
_cell_angle_gamma                 120.00317998045465 
loop_ 
_atom_site_label 
_atom_site_type_symbol 
_atom_site_fract_x 
_atom_site_fract_y 
_atom_site_fract_z 
_atom_site_charge 
O1          O  0.47380901  0.44230700  0.25289361    -0.74300
O2          O  0.47510046  0.03064801  0.25165944    -0.74400
O3          O  0.47210065  0.48421948  0.22291290    -0.74400
O4          O  0.47713019  0.48884314  0.28155649    -0.74500
O5          O  0.03599828  0.01737303  0.27982516    -0.74400
O6          O  0.03105025  0.01393172  0.22135811    -0.74400
O7          O  0.03399904  0.05974320  0.25028376    -0.74400
O8          O  0.03265277  0.47119150  0.25082959    -0.74400
Ni9        Ni  0.47243411  0.48548772  0.25232841     1.25400
Ni10       Ni  0.03550739  0.01655013  0.25051508     1.25400
C11         C  0.00302412  0.44207566  0.25185433     0.87800
C12         C  0.00467190  0.05982375  0.25084931     0.87800
C13         C  0.50090534  0.49844577  0.21244986     0.87800
C14         C  0.50739253  0.50394158  0.29040007     0.88000
O15         O  0.03051949  0.22074986  0.24978759    -0.74300
O16         O  0.02873860  0.30751990  0.25019955    -0.74400
O17         O  0.02877487  0.26353424  0.27923573    -0.74400
O18         O  0.03022134  0.26463624  0.22065452    -0.74500
O19         O  0.47127898  0.23487052  0.22042012    -0.74400
O20         O  0.46976181  0.23270728  0.27900186    -0.74400
O21         O  0.46978087  0.27753869  0.25027259    -0.74400
O22         O  0.47158893  0.19054710  0.24930227    -0.74400
Ni23       Ni  0.03164654  0.26520103  0.24996774     1.25400
Ni24       Ni  0.46849004  0.23285024  0.24970950     1.25400
C25         C  0.00130226  0.19121822  0.24963334     0.87800
C26         C  0.99911346  0.30701139  0.25047504     0.87800
C27         C  0.99906694  0.24796948  0.28877590     0.87800
C28         C  0.00095351  0.24967105  0.21081927     0.88000
O29         O  0.22211504  0.03321378  0.25065207    -0.74300
O30         O  0.22080493  0.44490134  0.24974788    -0.74400
O31         O  0.22346651  0.48924745  0.27949665    -0.74400
O32         O  0.21954486  0.48852555  0.22090537    -0.74500
O33         O  0.27842914  0.01711872  0.21947931    -0.74400
O34         O  0.28242887  0.01896874  0.27801833    -0.74400
O35         O  0.27971891  0.47390322  0.24861320    -0.74400
O36         O  0.28098057  0.06239226  0.24891310    -0.74400
Ni37       Ni  0.21939959  0.48802291  0.25025644     1.25400
Ni38       Ni  0.28249407  0.01916901  0.24870049     1.25400
C39         C  0.25165278  0.06243431  0.24990755     0.87800
C40         C  0.25008477  0.44476105  0.24908344     0.87800
C41         C  0.25361184  0.50416571  0.28842905     0.87800
C42         C  0.24835921  0.50200635  0.21047624     0.88000
O43         O  0.21664719  0.23562889  0.22031336    -0.74300
O44         O  0.21823432  0.23739254  0.27884226    -0.74400
O45         O  0.21706220  0.28046387  0.24920191    -0.74400
O46         O  0.21830888  0.19321377  0.24984104    -0.74500
O47         O  0.27723001  0.22327049  0.24944618    -0.74400
O48         O  0.27598986  0.31026415  0.24844145    -0.74400
O49         O  0.27722647  0.26792689  0.27836058    -0.74400
O50         O  0.27557104  0.26538519  0.21967179    -0.74400
Ni51       Ni  0.21547107  0.23565757  0.24958557     1.25400
Ni52       Ni  0.27860322  0.26781663  0.24895733     1.25400
C53         C  0.24584599  0.24991708  0.21027987     0.87800
C54         C  0.24786854  0.25254771  0.28829344     0.87800
C55         C  0.24643402  0.30988103  0.24866115     0.87800
C56         C  0.24797258  0.19377409  0.24969160     0.88000
O57         O  0.49556627  0.47559722  0.38806334    -0.74300
O58         O  0.49316937  0.47234099  0.44666885    -0.74400
O59         O  0.45086583  0.47393597  0.41718444    -0.74400
O60         O  0.03838749  0.47385448  0.41739760    -0.74500
O61         O  0.06831400  0.03277813  0.41855480    -0.74400
O62         O  0.48047694  0.03288986  0.41779123    -0.74400
O63         O  0.02271387  0.03132855  0.44754100    -0.74400
O64         O  0.02625674  0.03468986  0.38889086    -0.74400
Ni65       Ni  0.49355771  0.47186101  0.41730093     1.25400
Ni66       Ni  0.02553113  0.03504896  0.41825483     1.25400
C67         C  0.51094637  0.50558700  0.37886568     0.87800
C68         C  0.00694747  0.50136623  0.45680609     0.87800
C69         C  0.45111474  0.50342543  0.41737860     0.87800
C70         C  0.06782865  0.50314033  0.41789789     0.88000
O71         O  0.46961673  0.27783252  0.41634188    -0.74300
O72         O  0.05729996  0.27776752  0.41551146    -0.74400
O73         O  0.01265138  0.27680987  0.38664020    -0.74400
O74         O  0.01443112  0.27866604  0.44524751    -0.74500
O75         O  0.48511232  0.21971600  0.44584028    -0.74400
O76         O  0.48287742  0.21776865  0.38722495    -0.74400
O77         O  0.02800951  0.21876722  0.41616065    -0.74400
O78         O  0.44015756  0.21889582  0.41703459    -0.74400
Ni79       Ni  0.01452323  0.27984848  0.41590263     1.25400
Ni80       Ni  0.48297920  0.21667734  0.41657693     1.25400
C81         C  0.44029762  0.24837063  0.41683576     0.87800
C82         C  0.05723338  0.24835977  0.41579797     0.87800
C83         C  0.99744291  0.24702361  0.37725846     0.87800
C84         C  0.00020227  0.24946735  0.45527550     0.88000
O85         O  0.28707548  0.47127462  0.41530777    -0.74300
O86         O  0.19993902  0.47284657  0.41619209    -0.74400
O87         O  0.24284096  0.47228586  0.38645333    -0.74400
O88         O  0.24361440  0.47134865  0.44500364    -0.74500
O89         O  0.27343591  0.03029628  0.44520648    -0.74400
O90         O  0.27381577  0.03132318  0.38657715    -0.74400
O91         O  0.23032625  0.03179774  0.41606938    -0.74400
O92         O  0.31710611  0.03021982  0.41578291    -0.74400
Ni93       Ni  0.24232847  0.46982498  0.41571560     1.25400
Ni94       Ni  0.27476278  0.03299020  0.41591170     1.25400
C95         C  0.31658333  0.50058506  0.41560518     0.87800
C96         C  0.20074002  0.50266898  0.41620124     0.87800
C97         C  0.25787250  0.50189302  0.37686044     0.87800
C98         C  0.25838925  0.50068428  0.45483358     0.88000
O99         O  0.26421969  0.28030619  0.38703498    -0.74300
O100        O  0.26341647  0.27834412  0.44575461    -0.74400
O101        O  0.30795499  0.27992577  0.41628054    -0.74400
O102        O  0.21947751  0.27866149  0.41661912    -0.74500
O103        O  0.19053457  0.21964601  0.41663428    -0.74400
O104        O  0.27896496  0.22100634  0.41527442    -0.74400
O105        O  0.23514221  0.21942186  0.44516908    -0.74400
O106        O  0.23426553  0.22128292  0.38646894    -0.74400
Ni107      Ni  0.26477109  0.28141057  0.41642465     1.25400
Ni108      Ni  0.23371829  0.21825577  0.41583300     1.25400
C109        C  0.24933614  0.25111209  0.37704497     0.87800
C110        C  0.24930503  0.24855250  0.45520852     0.87800
C111        C  0.30812411  0.25062468  0.41590027     0.87800
C112        C  0.19038143  0.24894580  0.41688668     0.88000
O113        O  0.47189654  0.02530574  0.08454290    -0.74300
O114        O  0.47092248  0.43714941  0.08467524    -0.74400
O115        O  0.47105418  0.48107756  0.11405283    -0.74400
O116        O  0.47182728  0.48147348  0.05533500    -0.74500
O117        O  0.03083857  0.00927808  0.05538524    -0.74400
O118        O  0.03003703  0.01111216  0.11397451    -0.74400
O119        O  0.02983359  0.46604389  0.08529249    -0.74400
O120        O  0.03081915  0.05432193  0.08394885    -0.74400
Ni121      Ni  0.46932630  0.48019862  0.08466876     1.25400
Ni122      Ni  0.03248298  0.01121770  0.08468124     1.25400
C123        C  0.50149856  0.05445409  0.08394115     0.87800
C124        C  0.50016764  0.43693148  0.08494339     0.87800
C125        C  0.50051291  0.49638943  0.12371677     0.87800
C126        C  0.50144900  0.49544270  0.04570014     0.88000
O127        O  0.03007106  0.30399165  0.08353143    -0.74300
O128        O  0.02913375  0.21586080  0.08258548    -0.74400
O129        O  0.03002670  0.26094093  0.05376366    -0.74400
O130        O  0.02916990  0.25918529  0.11234752    -0.74500
O131        O  0.47023154  0.22996024  0.11220649    -0.74400
O132        O  0.47108305  0.23239351  0.05356254    -0.74400
O133        O  0.47022427  0.18683555  0.08222003    -0.74400
O134        O  0.47114836  0.27508424  0.08357892    -0.74400
Ni135      Ni  0.03167654  0.26096557  0.08305620     1.25400
Ni136      Ni  0.46855889  0.22996016  0.08288350     1.25400
C137        C  0.00081597  0.30419417  0.08373607     0.87800
C138        C  0.99953904  0.18669438  0.08228202     0.87800
C139        C  0.00075784  0.24735862  0.04395697     0.87800
C140        C  0.99955430  0.24473435  0.12199899     0.88000
O141        O  0.27088551  0.01001133  0.11182321    -0.74300
O142        O  0.27154074  0.01034518  0.05338970    -0.74400
O143        O  0.27089939  0.05414163  0.08253948    -0.74400
O144        O  0.27089543  0.46620741  0.08250824    -0.74500
O145        O  0.21196950  0.43688717  0.08231885    -0.74400
O146        O  0.21195215  0.02452799  0.08282954    -0.74400
O147        O  0.21252379  0.48145418  0.05320517    -0.74400
O148        O  0.21194992  0.48030851  0.11205294    -0.74400
Ni149      Ni  0.27313167  0.01124588  0.08259314     1.25400
Ni150      Ni  0.20998444  0.47973555  0.08261568     1.25400
C151        C  0.24149055  0.49503682  0.12167251     0.87800
C152        C  0.24224983  0.49600491  0.04362520     0.87800
C153        C  0.24133485  0.05385069  0.08254814     0.87800
C154        C  0.24134963  0.43693607  0.08229575     0.88000
O155        O  0.27290510  0.30486067  0.08314174    -0.74300
O156        O  0.27250165  0.21683937  0.08253746    -0.74400
O157        O  0.27443937  0.26192514  0.05380335    -0.74400
O158        O  0.27146326  0.25980357  0.11205487    -0.74500
O159        O  0.21252645  0.22998193  0.11165229    -0.74400
O160        O  0.21537445  0.23374049  0.05297992    -0.74400
O161        O  0.21356758  0.18768678  0.08147727    -0.74400
O162        O  0.21397106  0.27561375  0.08294612    -0.74400
Ni163      Ni  0.27489406  0.26189812  0.08294904     1.25400
Ni164      Ni  0.21171785  0.23066630  0.08225385     1.25400
C165        C  0.24350556  0.30484310  0.08296276     0.87800
C166        C  0.24295601  0.18768919  0.08166052     0.87800
C167        C  0.24544378  0.24834412  0.04381301     0.87800
C168        C  0.24175279  0.24463145  0.12156044     0.88000
O169        O  0.49070212  0.01592990  0.88919696    -0.74300
O170        O  0.48899987  0.01244895  0.94776894    -0.74400
O171        O  0.03347300  0.05817064  0.91918544    -0.74400
O172        O  0.44613630  0.47032945  0.91767008    -0.74500
O173        O  0.47570604  0.44095419  0.91692261    -0.74400
O174        O  0.06333533  0.02910048  0.91853688    -0.74400
O175        O  0.01886125  0.48332458  0.94705931    -0.74400
O176        O  0.02073937  0.48697560  0.88842895    -0.74400
Ni177      Ni  0.48878134  0.01524130  0.91849255     1.25400
Ni178      Ni  0.02069548  0.48400120  0.91772140     1.25400
C179        C  0.00611045  0.50217113  0.87912722     0.87800
C180        C  0.00385357  0.49750075  0.95711221     0.87800
C181        C  0.06289332  0.05826854  0.91899508     0.87800
C182        C  0.44635521  0.44107306  0.91702470     0.88000
O183        O  0.02880871  0.31153929  0.91677821    -0.74300
O184        O  0.44153621  0.22295145  0.91654394    -0.74400
O185        O  0.48472540  0.26650242  0.94601869    -0.74400
O186        O  0.48501588  0.26786260  0.88742577    -0.74500
O187        O  0.01480531  0.23865804  0.88689132    -0.74400
O188        O  0.01585832  0.23859869  0.94553794    -0.74400
O189        O  0.47183091  0.19431269  0.91643195    -0.74400
O190        O  0.05873279  0.28252206  0.91593388    -0.74400
Ni191      Ni  0.48397370  0.26828465  0.91672091     1.25400
Ni192      Ni  0.01635426  0.23748893  0.91619314     1.25400
C193        C  0.05826885  0.31165266  0.91621194     0.87800
C194        C  0.44227384  0.19390676  0.91646241     0.87800
C195        C  0.00022266  0.25230911  0.95542818     0.87800
C196        C  0.99972428  0.25330813  0.87746677     0.88000
O197        O  0.22228858  0.44319246  0.91561568    -0.74300
O198        O  0.30982367  0.03144746  0.91651592    -0.74400
O199        O  0.26523835  0.48634627  0.94540170    -0.74400
O200        O  0.26712793  0.48816981  0.88675414    -0.74500
O201        O  0.23775009  0.01771860  0.88677555    -0.74400
O202        O  0.23463242  0.01474231  0.94544337    -0.74400
O203        O  0.27978235  0.06033221  0.91689450    -0.74400
O204        O  0.19260063  0.47244379  0.91532572    -0.74400
Ni205      Ni  0.26719309  0.48624756  0.91607267     1.25400
Ni206      Ni  0.23517001  0.01736169  0.91611695     1.25400
C207        C  0.19290551  0.44322486  0.91539850     0.87800
C208        C  0.30925427  0.06057723  0.91672414     0.87800
C209        C  0.24935799  0.49997080  0.95510799     0.87800
C210        C  0.25287668  0.50331723  0.87701828     0.88000
O211        O  0.31095331  0.28064765  0.91632392    -0.74300
O212        O  0.22312402  0.19326743  0.91699026    -0.74400
O213        O  0.26667370  0.23677498  0.88729871    -0.74400
O214        O  0.26717167  0.23719027  0.94590211    -0.74500
O215        O  0.23769262  0.26668077  0.94596195    -0.74400
O216        O  0.23755371  0.26659011  0.88747367    -0.74400
O217        O  0.19369070  0.22277172  0.91700908    -0.74400
O218        O  0.28186810  0.31051130  0.91650779    -0.74400
Ni219      Ni  0.26802638  0.23593418  0.91661096     1.25400
Ni220      Ni  0.23667767  0.26772506  0.91673272     1.25400
C221        C  0.31105317  0.31007928  0.91627887     0.87800
C222        C  0.19384627  0.19344657  0.91727719     0.87800
C223        C  0.25210459  0.25173437  0.87766093     0.87800
C224        C  0.25218752  0.25171611  0.95562616     0.88000
O225        O  0.46932966  0.03094791  0.58479481    -0.74300
O226        O  0.05687344  0.03048115  0.58435615    -0.74400
O227        O  0.01314577  0.03063167  0.55530293    -0.74400
O228        O  0.01333769  0.03097671  0.61389434    -0.74500
O229        O  0.48430123  0.47200209  0.61411684    -0.74400
O230        O  0.48287071  0.47164947  0.55527261    -0.74400
O231        O  0.02722250  0.47151060  0.58408598    -0.74400
O232        O  0.43966403  0.47200110  0.58528084    -0.74400
Ni233      Ni  0.01417496  0.03282492  0.58458627     1.25400
Ni234      Ni  0.48240469  0.46967288  0.58470480     1.25400
C235        C  0.43995629  0.50155786  0.58516189     0.87800
C236        C  0.05658128  0.50094570  0.58401803     0.87800
C237        C  0.99851672  0.50120396  0.54556351     0.87800
C238        C  0.99899377  0.50161340  0.62374109     0.88000
O239        O  0.46848949  0.27752836  0.58311802    -0.74300
O240        O  0.05573798  0.27660458  0.58367247    -0.74400
O241        O  0.01295027  0.27721061  0.55401378    -0.74400
O242        O  0.01134498  0.27704461  0.61265404    -0.74500
O243        O  0.48252643  0.21796815  0.61269525    -0.74400
O244        O  0.48281124  0.21826447  0.55404420    -0.74400
O245        O  0.02620190  0.21763540  0.58336943    -0.74400
O246        O  0.43881803  0.21856917  0.58356382    -0.74400
Ni247      Ni  0.01319095  0.27918343  0.58334968     1.25400
Ni248      Ni  0.48147050  0.21600192  0.58339146     1.25400
C249        C  0.43912302  0.24813417  0.58356350     0.87800
C250        C  0.05551492  0.24709484  0.58356975     0.87800
C251        C  0.99830713  0.24774405  0.54428639     0.87800
C252        C  0.99691813  0.24749709  0.62232452     0.88000
O253        O  0.21769556  0.02806616  0.58138771    -0.74300
O254        O  0.30559518  0.02845365  0.58331128    -0.74400
O255        O  0.26302924  0.02731803  0.55306770    -0.74400
O256        O  0.26043336  0.02924242  0.61158339    -0.74500
O257        O  0.23142244  0.47018619  0.61205604    -0.74400
O258        O  0.23366747  0.46836189  0.55349865    -0.74400
O259        O  0.27629735  0.46949316  0.58376239    -0.74400
O260        O  0.18833563  0.46908961  0.58193160    -0.74400
Ni261      Ni  0.26268002  0.03036220  0.58228578     1.25400
Ni262      Ni  0.23131488  0.46718109  0.58282120     1.25400
C263        C  0.18843486  0.49853566  0.58154972     0.87800
C264        C  0.30552618  0.49902304  0.58392100     0.87800
C265        C  0.24930098  0.49764166  0.54357988     0.87800
C266        C  0.24593284  0.49992518  0.62147739     0.88000
O267        O  0.27810395  0.22033118  0.58371304    -0.74300
O268        O  0.18890486  0.21730056  0.58327488    -0.74400
O269        O  0.23424349  0.21897469  0.55400177    -0.74400
O270        O  0.23319352  0.21898099  0.61272358    -0.74500
O271        O  0.26052110  0.27800684  0.61264753    -0.74400
O272        O  0.26287468  0.27790820  0.55410577    -0.74400
O273        O  0.21707776  0.27625778  0.58283412    -0.74400
O274        O  0.30636879  0.27928487  0.58401261    -0.74400
Ni275      Ni  0.23259418  0.21679229  0.58340650     1.25400
Ni276      Ni  0.26269770  0.27995216  0.58337729     1.25400
C277        C  0.30698756  0.25019049  0.58407602     0.87800
C278        C  0.18821472  0.24632952  0.58314782     0.87800
C279        C  0.24900156  0.24856417  0.54430515     0.87800
C280        C  0.24673412  0.24852075  0.62233595     0.88000
O281        O  0.01657618  0.48801078  0.78056012    -0.74300
O282        O  0.01288159  0.48522970  0.72201307    -0.74400
O283        O  0.05885949  0.03034048  0.75016706    -0.74400
O284        O  0.47038796  0.44320418  0.75235195    -0.74500
O285        O  0.44153202  0.47328468  0.75205493    -0.74400
O286        O  0.02985019  0.06024500  0.75122271    -0.74400
O287        O  0.48530073  0.01666950  0.72227311    -0.74400
O288        O  0.48658195  0.01700568  0.78101705    -0.74400
Ni289      Ni  0.01568606  0.48561180  0.75127113     1.25400
Ni290      Ni  0.48476350  0.01785347  0.75166977     1.25400
C291        C  0.00208779  0.00282611  0.79048710     0.87800
C292        C  0.99879626  0.50071498  0.71248322     0.87800
C293        C  0.05896173  0.05981064  0.75043191     0.87800
C294        C  0.44127252  0.44378150  0.75228540     0.88000
O295        O  0.05608098  0.27926252  0.74911519    -0.74300
O296        O  0.46835248  0.19146470  0.75046955    -0.74400
O297        O  0.01137435  0.23441722  0.72048530    -0.74400
O298        O  0.01316209  0.23642570  0.77908743    -0.74500
O299        O  0.48323190  0.26549355  0.77916812    -0.74400
O300        O  0.48259081  0.26462313  0.72058811    -0.74400
O301        O  0.43909486  0.22113932  0.75024587    -0.74400
O302        O  0.02675870  0.30887944  0.74948224    -0.74400
Ni303      Ni  0.01328318  0.23432539  0.74979326     1.25400
Ni304      Ni  0.48185232  0.26605505  0.74987438     1.25400
C305        C  0.05600888  0.30861913  0.74914203     0.87800
C306        C  0.43911881  0.19176929  0.75048410     0.87800
C307        C  0.99688933  0.24944261  0.71084197     0.87800
C308        C  0.99863750  0.25141828  0.78881363     0.88000
O309        O  0.21730692  0.44211712  0.74892489    -0.74300
O310        O  0.30585568  0.02881845  0.74856076    -0.74400
O311        O  0.26216349  0.48569380  0.77811675    -0.74400
O312        O  0.26098174  0.48557785  0.71941286    -0.74500
O313        O  0.23300973  0.01660319  0.71987002    -0.74400
O314        O  0.23317457  0.01562584  0.77843788    -0.74400
O315        O  0.27734374  0.05922935  0.74926634    -0.74400
O316        O  0.18858898  0.47233165  0.74903661    -0.74400
Ni317      Ni  0.26255115  0.48443031  0.74873233     1.25400
Ni318      Ni  0.23196178  0.01697450  0.74916790     1.25400
C319        C  0.18826016  0.44276003  0.74886510     0.87800
C320        C  0.30632286  0.05840525  0.74907783     0.87800
C321        C  0.24827668  0.00118611  0.78801614     0.87800
C322        C  0.24703857  0.00133586  0.70996437     0.88000
O323        O  0.22250400  0.19202855  0.74929720    -0.74300
O324        O  0.30959153  0.28036323  0.74942770    -0.74400
O325        O  0.26645813  0.23556816  0.77867895    -0.74400
O326        O  0.26539117  0.23676889  0.72003595    -0.74500
O327        O  0.23586063  0.26622954  0.72089915    -0.74400
O328        O  0.23638309  0.26442055  0.77940222    -0.74400
O329        O  0.27979063  0.30948061  0.75038464    -0.74400
O330        O  0.19261933  0.22107655  0.74996941    -0.74400
Ni331      Ni  0.26708492  0.23517747  0.74931722     1.25400
Ni332      Ni  0.23509780  0.26632311  0.75018645     1.25400
C333        C  0.19308716  0.19190143  0.74952919     0.87800
C334        C  0.30920900  0.30953960  0.75017261     0.87800
C335        C  0.25162618  0.24989991  0.78876529     0.87800
C336        C  0.25023859  0.25151404  0.71078623     0.88000
C337        C  0.34060814  0.09217025  0.74963991    -0.05400
C338        C  0.34055648  0.12431449  0.75087933    -0.32800
C339        C  0.37217474  0.15674981  0.75134075     0.36400
C340        C  0.40502163  0.15773656  0.75057280    -0.05700
C341        C  0.40512390  0.12555918  0.74958751    -0.32700
C342        C  0.37343894  0.09305974  0.74922107     0.36300
H343        H  0.31582617  0.12450907  0.75148992     0.16700
O344        O  0.37043911  0.18723207  0.75286858    -0.60200
H345        H  0.42989311  0.12543553  0.74902054     0.16700
O346        O  0.37508150  0.06248031  0.74814440    -0.60300
H347        H  0.37699063  0.05644360  0.76255532     0.43700
H348        H  0.36721762  0.19302136  0.73863311     0.43700
C349        C  0.15413090  0.40871906  0.74862165    -0.05400
C350        C  0.15443836  0.37667631  0.74992733    -0.32800
C351        C  0.12296508  0.34404784  0.75008935     0.36400
C352        C  0.09002342  0.34274364  0.74880966    -0.05700
C353        C  0.08969153  0.37475992  0.74729129    -0.32700
C354        C  0.12121900  0.40742296  0.74707244     0.36300
H355        H  0.17924890  0.37673347  0.75099423     0.16700
O356        O  0.12495003  0.31368356  0.75142961    -0.60200
H357        H  0.06484855  0.37463267  0.74619334     0.16700
O358        O  0.11933708  0.43781151  0.74548155    -0.60300
H359        H  0.11866643  0.44170763  0.73055910     0.43700
H360        H  0.12554820  0.30947294  0.76631625     0.43700
C361        C  0.40709449  0.40978929  0.75220850    -0.05400
C362        C  0.40736215  0.37776608  0.75365544    -0.32800
C363        C  0.37594518  0.34512924  0.75314086     0.36400
C364        C  0.34308962  0.34377394  0.75093649    -0.05700
C365        C  0.34272773  0.37579750  0.74970362    -0.32700
C366        C  0.37420614  0.40850226  0.75027347     0.36300
H367        H  0.43211791  0.37783922  0.75521943     0.16700
O368        O  0.37791649  0.31478839  0.75472400    -0.55400
H369        H  0.31792440  0.37563348  0.74814044     0.16700
O370        O  0.37229662  0.43891277  0.74898023    -0.60300
H371        H  0.37242361  0.44357309  0.73410015     0.43700
H372        H  0.37675541  0.30988214  0.76962926     0.43700
C373        C  0.09313334  0.09374384  0.74985625    -0.05400
C374        C  0.12500418  0.09333471  0.74764012    -0.32800
C375        C  0.15769219  0.12484412  0.74743291     0.36400
C376        C  0.15907968  0.15780154  0.74938714    -0.05700
C377        C  0.12718629  0.15817198  0.75137109    -0.32700
C378        C  0.09456515  0.12674750  0.75155725     0.36300
H379        H  0.12474361  0.06845608  0.74609752     0.16700
O380        O  0.18795821  0.12295219  0.74497678    -0.60200
H381        H  0.12735096  0.18300226  0.75291609     0.16700
O382        O  0.06437086  0.12880898  0.75387667    -0.60300
H383        H  0.05816798  0.13254639  0.73985447     0.43700
H384        H  0.19401280  0.11866977  0.75891400     0.43700
C385        C  0.24684528  0.24873465  0.64492372    -0.05400
C386        C  0.24367378  0.27503654  0.65553936    -0.32800
C387        C  0.24432353  0.27611494  0.67696767     0.36400
C388        C  0.24897077  0.25102012  0.68814123    -0.05700
C389        C  0.25220962  0.22479356  0.67744989    -0.32700
C390        C  0.25090812  0.22335541  0.65606539     0.36300
H391        H  0.24033837  0.29464991  0.64719383     0.16700
O392        O  0.24050212  0.30188015  0.68675410    -0.60200
H393        H  0.25547418  0.20505666  0.68569570     0.16700
O394        O  0.25415297  0.19729485  0.64622301    -0.60300
H395        H  0.27961377  0.20829436  0.64260367     0.43700
H396        H  0.26497047  0.32154442  0.68911615     0.43700
C397        C  0.24632003  0.50036112  0.64408243    -0.05400
C398        C  0.24625173  0.52833724  0.65471573    -0.32800
C399        C  0.24639111  0.52902936  0.67616130     0.36400
C400        C  0.24697346  0.50159966  0.68732305    -0.05700
C401        C  0.24769448  0.97402133  0.67663720    -0.32700
C402        C  0.24731458  0.97320994  0.65524406     0.36300
H403        H  0.24572462  0.54956613  0.64638782     0.16700
O404        O  0.24625422  0.55678514  0.68599902    -0.60200
H405        H  0.24826419  0.95276115  0.68489830     0.16700
O406        O  0.24840552  0.94593634  0.64541801    -0.60300
H407        H  0.27386336  0.95482531  0.64262131     0.43700
H408        H  0.27155543  0.57441043  0.68830771     0.43700
C409        C  0.34123784  0.25057353  0.58453584    -0.05400
C410        C  0.34114834  0.21872400  0.58808490    -0.32800
C411        C  0.37258144  0.21749769  0.58795194     0.36400
C412        C  0.40525079  0.24854241  0.58414020    -0.05700
C413        C  0.40545865  0.28057645  0.58099452    -0.32700
C414        C  0.37398308  0.28184516  0.58130370     0.36300
H415        H  0.31651892  0.19441391  0.59103160     0.16700
O416        O  0.37096444  0.18587525  0.59210548    -0.60200
H417        H  0.43013611  0.30488177  0.57813813     0.16700
O418        O  0.37561873  0.31366877  0.57785524    -0.60300
H419        H  0.38084657  0.32552056  0.59140238     0.43700
H420        H  0.36507368  0.17303281  0.57886430     0.43700
C421        C  0.08951792  0.24700827  0.58364772    -0.05400
C422        C  0.08975522  0.21547116  0.58782925    -0.32800
C423        C  0.12148158  0.21463440  0.58779177     0.36400
C424        C  0.15386486  0.24570810  0.58337678    -0.05700
C425        C  0.15353838  0.27717843  0.57933828    -0.32700
C426        C  0.12199287  0.27811405  0.57958628     0.36300
H427        H  0.06528472  0.19132490  0.59133879     0.16700
O428        O  0.12053261  0.18359859  0.59278056    -0.60200
H429        H  0.17793505  0.30142909  0.57588667     0.16700
O430        O  0.12330924  0.30954724  0.57528907    -0.60300
H431        H  0.12927352  0.32257959  0.58847137     0.43700
H432        H  0.11399608  0.16959133  0.57994143     0.43700
C433        C  0.99676581  0.24761696  0.64491045    -0.05400
C434        C  0.49318882  0.27377419  0.65537489    -0.32800
C435        C  0.49251119  0.27434361  0.67679619     0.36400
C436        C  0.99664741  0.24911577  0.68816375    -0.05700
C437        C  0.00076437  0.22326366  0.67762385    -0.32700
C438        C  0.00031419  0.22206111  0.65619808     0.36300
H439        H  0.49035578  0.29358568  0.64690587     0.16700
O440        O  0.48891747  0.30037728  0.68640638    -0.60200
H441        H  0.00397795  0.20361148  0.68600233     0.16700
O442        O  0.00486859  0.19672136  0.64644348    -0.60300
H443        H  0.98106950  0.17519331  0.64633850     0.43700
H444        H  0.46308692  0.29160577  0.68659161     0.43700
C445        C  0.40583114  0.50149894  0.58535493    -0.05400
C446        C  0.37395736  0.46935134  0.58803875    -0.32800
C447        C  0.34124429  0.46806904  0.58779247     0.36400
C448        C  0.33973348  0.49934988  0.58471003    -0.05700
C449        C  0.37162005  0.03156421  0.58229760    -0.32700
C450        C  0.40434850  0.03290140  0.58276369     0.36300
H451        H  0.37423365  0.44489080  0.59039200     0.16700
O452        O  0.31105757  0.43613509  0.59107747    -0.60200
H453        H  0.37134394  0.05602784  0.57995396     0.16700
O454        O  0.43459002  0.06505653  0.58022158    -0.60300
H455        H  0.44038080  0.07575917  0.59408789     0.43700
H456        H  0.30510398  0.42417745  0.57755800     0.43700
C457        C  0.15448982  0.49875734  0.58172399    -0.05400
C458        C  0.15470049  0.03038640  0.58627469    -0.32800
C459        C  0.12323164  0.03151003  0.58722379     0.36400
C460        C  0.09047909  0.50065809  0.58338259    -0.05700
C461        C  0.09024993  0.46902616  0.57876795    -0.32700
C462        C  0.12175632  0.46790387  0.57784105     0.36300
H463        H  0.17938569  0.05443602  0.58945018     0.16700
O464        O  0.12497970  0.06297793  0.59205515    -0.60200
H465        H  0.06553340  0.44496913  0.57565939     0.16700
O466        O  0.12007099  0.43643807  0.57309351    -0.60300
H467        H  0.12243457  0.43664406  0.55796666     0.43700
H468        H  0.12291395  0.06281864  0.60719936     0.43700
C469        C  0.99935520  0.50183550  0.64650836    -0.05400
C470        C  0.99293754  0.47119712  0.65723439    -0.32800
C471        C  0.99310672  0.47061624  0.67869408     0.36400
C472        C  0.99861060  0.50059696  0.68986474    -0.05700
C473        C  0.50474396  0.03110978  0.67925010    -0.32700
C474        C  0.50585472  0.03218190  0.65780548     0.36300
H475        H  0.98808043  0.44761608  0.64898322     0.16700
O476        O  0.98647039  0.44013966  0.68860231    -0.60200
H477        H  0.50943388  0.05453489  0.68762939     0.16700
O478        O  0.51245737  0.06281311  0.64811474    -0.60300
H479        H  0.53863490  0.07776673  0.64773258     0.43700
H480        H  0.00951343  0.44074971  0.68881762     0.43700
C481        C  0.25211070  0.25171274  0.85491908    -0.05400
C482        C  0.26595705  0.23325878  0.84426304    -0.32800
C483        C  0.26599791  0.23227941  0.82283563     0.36400
C484        C  0.25209199  0.25009311  0.81150664    -0.05700
C485        C  0.23844115  0.26870621  0.82217426    -0.32700
C486        C  0.23854197  0.26982571  0.84356991     0.36300
H487        H  0.27672390  0.21926211  0.85253606     0.16700
O488        O  0.27995783  0.21398327  0.81323166    -0.60200
H489        H  0.22774390  0.28279681  0.81393116     0.16700
O490        O  0.22508150  0.28862703  0.85311934    -0.60300
H491        H  0.24531173  0.31316429  0.85419688     0.43700
H492        H  0.26009507  0.18923406  0.81227776     0.43700
C493        C  0.25005400  0.00266530  0.81077827    -0.05400
C494        C  0.26611232  0.98624042  0.82124382    -0.32800
C495        C  0.26813389  0.98698209  0.84265721     0.36400
C496        C  0.25336002  0.50387802  0.85422528    -0.05700
C497        C  0.23814771  0.52109949  0.84373588    -0.32700
C498        C  0.23644303  0.52067202  0.82232464     0.36300
H499        H  0.27723288  0.97263009  0.81283076     0.16700
O500        O  0.28413264  0.97051761  0.85202441    -0.60200
H501        H  0.22717695  0.53486339  0.85213501     0.16700
O502        O  0.22179279  0.53842914  0.81293635    -0.60300
H503        H  0.19593180  0.52153215  0.81286102     0.43700
H504        H  0.30960150  0.98872322  0.85266743     0.43700
C505        C  0.40848994  0.15955637  0.91641636    -0.05400
C506        C  0.37621576  0.15941778  0.91594626    -0.32800
C507        C  0.34385404  0.12764634  0.91589359     0.36400
C508        C  0.34309414  0.09487163  0.91661150    -0.05700
C509        C  0.37536832  0.09499294  0.91693548    -0.32700
C510        C  0.40775039  0.12677827  0.91683520     0.36300
H511        H  0.37588622  0.18409683  0.91551559     0.16700
O512        O  0.31321426  0.12917759  0.91524296    -0.60200
H513        H  0.37567641  0.07029978  0.91727552     0.16700
O514        O  0.43841804  0.12526437  0.91687398    -0.60300
H515        H  0.44341830  0.12370338  0.93152661     0.43700
H516        H  0.30856161  0.13016624  0.90046441     0.43700
C517        C  0.15869896  0.40930785  0.91537279    -0.05400
C518        C  0.12690714  0.40985992  0.91309724    -0.32800
C519        C  0.09410801  0.37852289  0.91324006     0.36400
C520        C  0.09243510  0.34559199  0.91586455    -0.05700
C521        C  0.12423133  0.34503940  0.91803721    -0.32700
C522        C  0.15701021  0.37634900  0.91790197     0.36300
H523        H  0.12731965  0.43473613  0.91110695     0.16700
O524        O  0.06397105  0.38060096  0.91082926    -0.60200
H525        H  0.12383994  0.32017701  0.92004847     0.16700
O526        O  0.18711953  0.37420690  0.92027528    -0.60300
H527        H  0.19090975  0.37499941  0.93528417     0.43700
H528        H  0.05991939  0.37925666  0.89583289     0.43700
C529        C  0.99942942  0.25341016  0.85479170    -0.05400
C530        C  0.02465750  0.24870682  0.84394907    -0.32800
C531        C  0.02509039  0.24857507  0.82253112     0.36400
C532        C  0.99951565  0.25246392  0.81147526    -0.05700
C533        C  0.47451433  0.25756182  0.82230363    -0.32700
C534        C  0.47427414  0.25801612  0.84373185     0.36300
H535        H  0.04455519  0.24562880  0.85209099     0.16700
O536        O  0.05100125  0.24513086  0.81261431    -0.60200
H537        H  0.45466292  0.26070538  0.81415268     0.16700
O538        O  0.44903523  0.26257933  0.85363989    -0.60300
H539        H  0.42868251  0.23832833  0.85568826     0.43700
H540        H  0.07073232  0.26971516  0.81053234     0.43700
C541        C  0.41205913  0.40723101  0.91643114    -0.05400
C542        C  0.38062568  0.40799637  0.91298381    -0.32800
C543        C  0.34770377  0.37680373  0.91267529     0.36400
C544        C  0.34549724  0.34378163  0.91605647    -0.05700
C545        C  0.37696481  0.34297533  0.91926254    -0.32700
C546        C  0.40990136  0.37416465  0.91951531     0.36300
H547        H  0.38143940  0.43294413  0.91040668     0.16700
O548        O  0.31795675  0.37911291  0.90908278    -0.60200
H549        H  0.37615293  0.31802973  0.92184333     0.16700
O550        O  0.43968579  0.37183396  0.92290894    -0.60300
H551        H  0.44248952  0.37282781  0.93800866     0.43700
H552        H  0.31489121  0.37725924  0.89399893     0.43700
C553        C  0.09660248  0.09265886  0.91904213    -0.05400
C554        C  0.09562331  0.12439820  0.91814362    -0.32800
C555        C  0.12679568  0.15732637  0.91772740     0.36400
C556        C  0.16003378  0.15915764  0.91802412    -0.05700
C557        C  0.16098735  0.12742505  0.91915933    -0.32700
C558        C  0.12983833  0.09452006  0.91961291     0.36300
H559        H  0.07053153  0.12385984  0.91765697     0.16700
O560        O  0.12425484  0.18740314  0.91666742    -0.60200
H561        H  0.18606216  0.12792905  0.91963726     0.16700
O562        O  0.13240547  0.06446996  0.92086367    -0.60300
H563        H  0.13508547  0.05867180  0.90650936     0.43700
H564        H  0.12164720  0.19304245  0.93107152     0.43700
C565        C  0.00629117  0.50341919  0.85646187    -0.05400
C566        C  0.48033622  0.50777626  0.84638478    -0.32800
C567        C  0.47864773  0.50765869  0.82500511     0.36400
C568        C  0.00346705  0.50353080  0.81316956    -0.05700
C569        C  0.02980875  0.99970398  0.82323616    -0.32700
C570        C  0.03151938  0.99986998  0.84465807     0.36300
H571        H  0.46062393  0.51047659  0.85510957     0.16700
O572        O  0.45208980  0.51084842  0.81590645    -0.60200
H573        H  0.04942585  0.99689535  0.81447664     0.16700
O574        O  0.05811432  0.99680416  0.85382602    -0.60300
H575        H  0.07787722  0.02146534  0.85546650     0.43700
H576        H  0.43218573  0.48622525  0.81438596     0.43700
C577        C  0.24697140  0.24929365  0.02138211    -0.05400
C578        C  0.27054390  0.24132286  0.01129031    -0.32800
C579        C  0.27221463  0.24138204  0.98990920     0.36400
C580        C  0.25099689  0.25090762  0.97828662    -0.05700
C581        C  0.22783649  0.25947437  0.98856538    -0.32700
C582        C  0.22540319  0.25825608  0.00992673     0.36300
H583        H  0.28722938  0.23429430  0.02002521     0.16700
O584        O  0.29511003  0.23267070  0.98063463    -0.60200
H585        H  0.21120243  0.26681453  0.98004854     0.16700
O586        O  0.20300558  0.26734017  0.01949697    -0.60300
H587        H  0.17947395  0.24545996  0.01942767     0.43700
H588        H  0.28194436  0.20642385  0.97982914     0.43700
C589        C  0.24135611  0.40286858  0.08207503    -0.05400
C590        C  0.27365004  0.40322096  0.08024165    -0.32800
C591        C  0.27487174  0.37176005  0.08047547     0.36400
C592        C  0.24336127  0.33884600  0.08261677    -0.05700
C593        C  0.21099551  0.33845243  0.08415177    -0.32700
C594        C  0.20974089  0.36989398  0.08374473     0.36300
H595        H  0.29828852  0.42804978  0.07859350     0.16700
O596        O  0.30703680  0.37364240  0.07812221    -0.60200
H597        H  0.18633170  0.31361456  0.08569072     0.16700
O598        O  0.17742067  0.36790204  0.08538109    -0.60300
H599        H  0.16825716  0.36434641  0.07117927     0.43700
H600        H  0.31736950  0.37816473  0.09205644     0.43700
C601        C  0.24119154  0.08782667  0.08199517    -0.05400
C602        C  0.27253689  0.11931611  0.07711550    -0.32800
C603        C  0.27336623  0.15180507  0.07645748     0.36400
C604        C  0.24260318  0.15350193  0.08109403    -0.05700
C605        C  0.21105440  0.12192951  0.08549253    -0.32700
C606        C  0.21014623  0.08940154  0.08602362     0.36300
H607        H  0.29658459  0.11882496  0.07358559     0.16700
O608        O  0.30444129  0.18164245  0.07116292    -0.60200
H609        H  0.18697015  0.12241123  0.08893085     0.16700
O610        O  0.17872702  0.05943816  0.09065022    -0.60300
H611        H  0.17812587  0.05780632  0.10581655     0.43700
H612        H  0.30331220  0.18367491  0.05608230     0.43700
C613        C  0.24756109  0.49837182  0.97775632    -0.05400
C614        C  0.21908875  0.99844357  0.98787965    -0.32800
C615        C  0.21653129  0.99689230  0.00928465     0.36400
C616        C  0.24321993  0.49619323  0.02099348    -0.05700
C617        C  0.27179088  0.49631960  0.01089027    -0.32700
C618        C  0.27384546  0.49685216  0.98948510     0.36300
H619        H  0.19851007  0.99942784  0.97916250     0.16700
O620        O  0.18867723  0.99767984  0.01859230    -0.60200
H621        H  0.29256274  0.49571240  0.01962124     0.16700
O622        O  0.30241159  0.49734871  0.98025554    -0.60300
H623        H  0.29660410  0.47224986  0.97994816     0.43700
H624        H  0.16901724  0.97275414  0.01857017     0.43700
C625        C  0.00026884  0.25178514  0.97801630    -0.05400
C626        C  0.03061497  0.25695619  0.98832632    -0.32800
C627        C  0.03147794  0.25636561  0.00973784     0.36400
C628        C  0.00112262  0.24922629  0.02126406    -0.05700
C629        C  0.47069857  0.24398875  0.01085699    -0.32700
C630        C  0.47029757  0.24575635  0.98944740     0.36300
H631        H  0.05398517  0.26191674  0.97973687     0.16700
O632        O  0.06184096  0.26177148  0.01914649    -0.60200
H633        H  0.44713053  0.23873262  0.01932230     0.16700
O634        O  0.43994231  0.23991742  0.97982318    -0.60300
H635        H  0.44082137  0.26310172  0.98005132     0.43700
H636        H  0.07703528  0.28787690  0.02015303     0.43700
C637        C  0.99988294  0.40274399  0.08470851    -0.05400
C638        C  0.03215924  0.40285090  0.08484471    -0.32800
C639        C  0.03300168  0.37121200  0.08454386     0.36400
C640        C  0.00109654  0.33836416  0.08411371    -0.05700
C641        C  0.46882249  0.33825369  0.08394479    -0.32700
C642        C  0.46798737  0.36989685  0.08407696     0.36300
H643        H  0.05708032  0.42761597  0.08513528     0.16700
O644        O  0.06528402  0.37294012  0.08433002    -0.60200
H645        H  0.44390466  0.31349032  0.08356471     0.16700
O646        O  0.43571869  0.36817795  0.08370598    -0.60300
H647        H  0.42964578  0.36687816  0.06898246     0.43700
H648        H  0.07209050  0.37447296  0.09893317     0.43700
C649        C  0.99955100  0.15259824  0.08220191    -0.05400
C650        C  0.03200173  0.15300635  0.08230545    -0.32800
C651        C  0.03319564  0.12152892  0.08268916     0.36400
C652        C  0.00148684  0.08851699  0.08315430    -0.05700
C653        C  0.46903829  0.08809384  0.08277340    -0.32700
C654        C  0.46784260  0.11957046  0.08235621     0.36300
H655        H  0.05680441  0.17789921  0.08216014     0.16700
O656        O  0.06561660  0.12357660  0.08294801    -0.60200
H657        H  0.44423799  0.06319751  0.08290492     0.16700
O658        O  0.43542429  0.11751919  0.08195812    -0.60300
H659        H  0.42796538  0.11536692  0.09651088     0.43700
H660        H  0.07268742  0.12520083  0.06834857     0.43700
C661        C  0.50182063  0.49577095  0.02308985    -0.05400
C662        C  0.02816371  0.49266627  0.01244546    -0.32800
C663        C  0.02889980  0.49261841  0.99099465     0.36400
C664        C  0.00350133  0.49665316  0.97980192    -0.05700
C665        C  0.47750864  0.00031594  0.99052868    -0.32700
C666        C  0.47641624  0.99970463  0.01194729     0.36300
H667        H  0.04803224  0.48981256  0.02078441     0.16700
O668        O  0.05529407  0.48984759  0.98119062    -0.60200
H669        H  0.45773850  0.00346765  0.98229196     0.16700
O670        O  0.45072082  0.00356530  0.02182422    -0.60300
H671        H  0.46144865  0.02939365  0.02421068     0.43700
H672        H  0.04676005  0.46406938  0.98059488     0.43700
C673        C  0.24943619  0.24800682  0.47800061    -0.05400
C674        C  0.26700029  0.28013372  0.48880164    -0.32800
C675        C  0.26748824  0.28077292  0.51023263     0.36400
C676        C  0.24986936  0.24882307  0.52150785    -0.05700
C677        C  0.23263077  0.21665662  0.51071435    -0.32700
C678        C  0.23219463  0.21602384  0.48925839     0.36300
H679        H  0.28058607  0.30511298  0.48063601     0.16700
O680        O  0.28504227  0.31296573  0.51989604    -0.60200
H681        H  0.21904873  0.19170147  0.51890270     0.16700
O682        O  0.21484725  0.18386121  0.47955274    -0.60300
H683        H  0.19001179  0.17853277  0.47821205     0.43700
H684        H  0.30974499  0.31796310  0.52140494     0.43700
C685        C  0.25745689  0.50016805  0.47757632    -0.05400
C686        C  0.24200123  0.46758296  0.48805901    -0.32800
C687        C  0.23945489  0.46613378  0.50946927     0.36400
C688        C  0.25201339  0.49766921  0.52090007    -0.05700
C689        C  0.26811850  0.03020404  0.51041745    -0.32700
C690        C  0.27096059  0.03168699  0.48908247     0.36300
H691        H  0.23169460  0.44294749  0.47966538     0.16700
O692        O  0.22433881  0.43368724  0.51893253    -0.60200
H693        H  0.27852498  0.05490415  0.51874972     0.16700
O694        O  0.28720079  0.06426259  0.47974439    -0.60300
H695        H  0.26839862  0.07056187  0.47820621     0.43700
H696        H  0.24399866  0.42873565  0.52088944     0.43700
C697        C  0.00095340  0.24975353  0.47803896    -0.05400
C698        C  0.48841144  0.21762589  0.48868726    -0.32800
C699        C  0.48759304  0.21651102  0.51010870     0.36400
C700        C  0.99940904  0.24796514  0.52150621    -0.05700
C701        C  0.01263321  0.28021938  0.51086615    -0.32700
C702        C  0.01370773  0.28136068  0.48941857     0.36300
H703        H  0.47906682  0.19300178  0.48040779     0.16700
O704        O  0.47586194  0.18450527  0.51965671    -0.60200
H705        H  0.02209303  0.30483710  0.51916892     0.16700
O706        O  0.02658430  0.31351280  0.47984210    -0.60300
H707        H  0.05255261  0.32333024  0.47892981     0.43700
H708        H  0.44970392  0.17335253  0.52011274     0.43700
C709        C  0.34223627  0.25065100  0.41639778    -0.05400
C710        C  0.34179917  0.21822448  0.41748836    -0.32800
C711        C  0.37323997  0.21698660  0.41787858     0.36400
C712        C  0.40630100  0.24862194  0.41704345    -0.05700
C713        C  0.40676697  0.28110667  0.41625933    -0.32700
C714        C  0.37529332  0.28235425  0.41612940     0.36300
H715        H  0.31689795  0.19345840  0.41810719     0.16700
O716        O  0.37112915  0.18460530  0.41944603    -0.60200
H717        H  0.43168564  0.30586673  0.41575774     0.16700
O718        O  0.37737048  0.31479530  0.41548163    -0.60300
H719        H  0.37930093  0.32231704  0.42999154     0.43700
H720        H  0.36772740  0.17545774  0.40522880     0.43700
C721        C  0.15623495  0.24860573  0.41715678    -0.05400
C722        C  0.15502216  0.27833566  0.40999789    -0.32800
C723        C  0.12306648  0.27849864  0.40928852     0.36400
C724        C  0.09136805  0.24864159  0.41599709    -0.05700
C725        C  0.09260768  0.21899895  0.42336868    -0.32700
C726        C  0.12466072  0.21892372  0.42417234     0.36300
H727        H  0.17888760  0.30143830  0.40452632     0.16700
O728        O  0.12320323  0.30793466  0.40175615    -0.60200
H729        H  0.06873218  0.19595808  0.42888851     0.16700
O730        O  0.12479219  0.18986197  0.43211702    -0.60300
H731        H  0.13030636  0.19524482  0.44686048     0.43700
H732        H  0.11825147  0.30330117  0.38691417     0.43700
C733        C  0.00448885  0.50059874  0.47949823    -0.05400
C734        C  0.02820893  0.03068301  0.49067281    -0.32800
C735        C  0.02644610  0.03126360  0.51205001     0.36400
C736        C  0.00038667  0.50142319  0.52283418    -0.05700
C737        C  0.47656786  0.47128244  0.51167000    -0.32700
C738        C  0.47827675  0.47077257  0.49022292     0.36300
H739        H  0.04859500  0.05390592  0.48282839     0.16700
O740        O  0.05074085  0.06112957  0.52219940    -0.60200
H741        H  0.45621955  0.44810181  0.51956208     0.16700
O742        O  0.45382140  0.44114600  0.47995516    -0.60300
H743        H  0.43424160  0.44567382  0.47667755     0.43700
H744        H  0.07067658  0.05707100  0.52531325     0.43700
C745        C  0.41688726  0.50307956  0.41704578    -0.05400
C746        C  0.38500212  0.47052435  0.41587602    -0.32800
C747        C  0.35224309  0.46912124  0.41531308     0.36400
C748        C  0.35071363  0.50069815  0.41594225    -0.05700
C749        C  0.38260438  0.03321796  0.41717546    -0.32700
C750        C  0.41531625  0.03461103  0.41785628     0.36300
H751        H  0.38529208  0.44582816  0.41535107     0.16700
O752        O  0.32198902  0.43663548  0.41442799    -0.60200
H753        H  0.38236129  0.05793310  0.41776311     0.16700
O754        O  0.44550211  0.06708381  0.41917737    -0.60300
H755        H  0.44951960  0.07196632  0.43406390     0.43700
H756        H  0.31810741  0.43077893  0.39963714     0.43700
C757        C  0.10170619  0.50276914  0.41751605    -0.05400
C758        C  0.13384214  0.03466933  0.41491496    -0.32800
C759        C  0.16619239  0.03517357  0.41436953     0.36400
C760        C  0.16700245  0.50331650  0.41647051    -0.05700
C761        C  0.13485536  0.47144475  0.41897525    -0.32700
C762        C  0.10253591  0.47091561  0.41941687     0.36300
H763        H  0.13402272  0.05947179  0.41314585     0.16700
O764        O  0.19667842  0.06692754  0.41127419    -0.60200
H765        H  0.13460012  0.44659829  0.42068437     0.16700
O766        O  0.07203341  0.43905634  0.42217783    -0.60300
H767        H  0.06550204  0.42844005  0.40831342     0.43700
H768        H  0.20375302  0.07772807  0.42506665     0.43700
C769        C  0.24499519  0.24825442  0.18757998    -0.05400
C770        C  0.21257473  0.22739123  0.17747790    -0.32800
C771        C  0.21083978  0.22559552  0.15605479     0.36400
C772        C  0.24193974  0.24486113  0.14426415    -0.05700
C773        C  0.27430948  0.26536431  0.15440699    -0.32700
C774        C  0.27608420  0.26705667  0.17573695     0.36300
H775        H  0.18832843  0.21226204  0.18618132     0.16700
O776        O  0.17874767  0.20435350  0.14692114    -0.60200
H777        H  0.29865341  0.28055154  0.14579798     0.16700
O778        O  0.30837778  0.28795037  0.18473191    -0.60300
H779        H  0.31941119  0.27285859  0.18556744     0.43700
H780        H  0.16703479  0.21884356  0.14640066     0.43700
C781        C  0.24811978  0.25202284  0.31097612    -0.05400
C782        C  0.27623068  0.27961998  0.32170271    -0.32800
C783        C  0.27695482  0.27971030  0.34316495     0.36400
C784        C  0.24936898  0.25174534  0.35433338    -0.05700
C785        C  0.22160813  0.22382936  0.34357860    -0.32700
C786        C  0.22066972  0.22392949  0.32213293     0.36300
H787        H  0.29766465  0.30136866  0.31343021     0.16700
O788        O  0.30508078  0.30701011  0.35302759    -0.60200
H789        H  0.20030362  0.20191830  0.35182558     0.16700
O790        O  0.19357473  0.19564707  0.31222906    -0.60300
H791        H  0.17357835  0.20040100  0.31233142     0.43700
H792        H  0.32250029  0.29892317  0.35485203     0.43700
C793        C  0.24943919  0.41040791  0.24884740    -0.05400
C794        C  0.21702290  0.37872284  0.24647403    -0.32800
C795        C  0.21546579  0.34585697  0.24622967     0.36400
C796        C  0.24672061  0.34407996  0.24847440    -0.05700
C797        C  0.27910469  0.37579182  0.25074877    -0.32700
C798        C  0.28064858  0.40858106  0.25108466     0.36300
H799        H  0.19261996  0.37928965  0.24471375     0.16700
O800        O  0.18316654  0.31575639  0.24392821    -0.60200
H801        H  0.30354701  0.37532224  0.25255969     0.16700
O802        O  0.31292081  0.43858215  0.25371468    -0.60300
H803        H  0.31593818  0.44175320  0.26876355     0.43700
H804        H  0.17968935  0.31234266  0.22891641     0.43700
C805        C  0.24866442  0.16005156  0.24979874    -0.05400
C806        C  0.28130142  0.16089988  0.25079702    -0.32800
C807        C  0.28288757  0.12959611  0.25099819     0.36400
C808        C  0.25142023  0.09640770  0.25006073    -0.05700
C809        C  0.21884574  0.09563115  0.24911757    -0.32700
C810        C  0.21725654  0.12685886  0.24884798     0.36300
H811        H  0.30587916  0.18596422  0.25149579     0.16700
O812        O  0.31541558  0.13196108  0.25196485    -0.60200
H813        H  0.19422682  0.07061750  0.24837737     0.16700
O814        O  0.18469433  0.12438266  0.24771778    -0.60300
H815        H  0.17955258  0.12333558  0.23286367     0.43700
H816        H  0.32063878  0.13278747  0.26679447     0.43700
C817        C  0.24671236  0.49962736  0.18776802    -0.05400
C818        C  0.21408784  0.48737884  0.17782480    -0.32800
C819        C  0.21166428  0.48504655  0.15642767     0.36400
C820        C  0.24228391  0.49524858  0.14443019    -0.05700
C821        C  0.27472093  0.00665588  0.15442089    -0.32700
C822        C  0.27708249  0.00860188  0.17577693     0.36300
H823        H  0.19022142  0.47975570  0.18663360     0.16700
O824        O  0.17918365  0.47277300  0.14750609    -0.60200
H825        H  0.29859824  0.01408371  0.14566370     0.16700
O826        O  0.30933059  0.01932157  0.18466122    -0.60300
H827        H  0.31029118  0.99727610  0.18674894     0.43700
H828        H  0.17648323  0.49392509  0.14591345     0.43700
C829        C  0.25666679  0.50214515  0.35426933    -0.05400
C830        C  0.28487685  0.02935625  0.34328705    -0.32800
C831        C  0.28434061  0.03031236  0.32187508     0.36400
C832        C  0.25503854  0.50393369  0.31105605    -0.05700
C833        C  0.22662385  0.47696887  0.32208598    -0.32700
C834        C  0.22738565  0.47575531  0.34348405     0.36300
H835        H  0.30758906  0.04987646  0.35132821     0.16700
O836        O  0.31243603  0.05742226  0.31174195    -0.60200
H837        H  0.20378496  0.45651729  0.31409957     0.16700
O838        O  0.19866971  0.44957685  0.35372940    -0.60300
H839        H  0.20203029  0.42868948  0.35345476     0.43700
H840        H  0.30571032  0.07585331  0.30977512     0.43700
C841        C  0.00114655  0.24900205  0.18809328    -0.05400
C842        C  0.46945581  0.23830935  0.17743667    -0.32800
C843        C  0.46845510  0.23682216  0.15603267     0.36400
C844        C  0.99947357  0.24565174  0.14472774    -0.05700
C845        C  0.03120058  0.25646970  0.15538167    -0.32700
C846        C  0.03224113  0.25813565  0.17678828     0.36300
H847        H  0.44521779  0.23131094  0.18569554     0.16700
O848        O  0.43696456  0.22693336  0.14641229    -0.60200
H849        H  0.05545147  0.26353596  0.14711902     0.16700
O850        O  0.06386636  0.26864166  0.18640566    -0.60300
H851        H  0.06455533  0.24651873  0.18877915     0.43700
H852        H  0.43674369  0.24931728  0.14411755     0.43700
C853        C  0.99858934  0.24776367  0.31138028    -0.05400
C854        C  0.47087113  0.21932987  0.32199395    -0.32800
C855        C  0.47011606  0.21855497  0.34344259     0.36400
C856        C  0.99721933  0.24671464  0.35461964    -0.05700
C857        C  0.02459094  0.27532640  0.34395459    -0.32700
C858        C  0.02549401  0.27596668  0.32256561     0.36300
H859        H  0.44989482  0.19745007  0.31364271     0.16700
O860        O  0.44261235  0.19033065  0.35326373    -0.60200
H861        H  0.04564372  0.29724984  0.35223373     0.16700
O862        O  0.05263309  0.30455844  0.31277624    -0.60300
H863        H  0.04338712  0.32079169  0.30991984     0.43700
H864        H  0.42491579  0.19780322  0.35600197     0.43700
C865        C  0.00230405  0.40764413  0.25170149    -0.05400
C866        C  0.47067464  0.37624931  0.25645787    -0.32800
C867        C  0.46895952  0.34327546  0.25603445     0.36400
C868        C  0.99933521  0.34117059  0.25093165    -0.05700
C869        C  0.03090535  0.37255958  0.24624076    -0.32700
C870        C  0.03259702  0.40543169  0.24656580     0.36300
H871        H  0.44704687  0.37714890  0.26058413     0.16700
O872        O  0.43771704  0.31352280  0.26120379    -0.60200
H873        H  0.05455236  0.37173715  0.24205927     0.16700
O874        O  0.06378707  0.43501617  0.24112641    -0.60300
H875        H  0.07847717  0.44206635  0.25368120     0.43700
H876        H  0.42354902  0.30631017  0.24844628     0.43700
C877        C  0.00455400  0.09382885  0.25061355    -0.05400
C878        C  0.47253453  0.09348593  0.25398498    -0.32800
C879        C  0.47108731  0.12478474  0.25380206     0.36400
C880        C  0.00201351  0.15753874  0.24999114    -0.05700
C881        C  0.03415467  0.15800197  0.24678661    -0.32700
C882        C  0.03561580  0.12662812  0.24701717     0.36300
H883        H  0.44830290  0.06879258  0.25694503     0.16700
O884        O  0.43917061  0.12285130  0.25746041    -0.60200
H885        H  0.05835537  0.18277794  0.24392018     0.16700
O886        O  0.06761285  0.12852342  0.24374661    -0.60300
H887        H  0.06974374  0.12752074  0.22865807     0.43700
H888        H  0.43822525  0.12556161  0.27250255     0.43700
C889        C  0.49985969  0.49753993  0.18977447    -0.05400
C890        C  0.02888425  0.52373829  0.17875893    -0.32800
C891        C  0.02941307  0.52367847  0.15734973     0.36400
C892        C  0.50047607  0.49709427  0.14641673    -0.05700
C893        C  0.47130538  0.97090679  0.15740668    -0.32700
C894        C  0.47081754  0.97096584  0.17889507     0.36300
H895        H  0.05129873  0.54469936  0.18677238     0.16700
O896        O  0.05781350  0.55058922  0.14729510    -0.60200
H897        H  0.44896894  0.94997066  0.14933293     0.16700
O898        O  0.44256519  0.94407296  0.18905532    -0.60300
H899        H  0.42403593  0.95092850  0.18915716     0.43700
H900        H  0.07633233  0.54371163  0.14729753     0.43700
C901        C  0.51021560  0.50635249  0.35636571    -0.05400
C902        C  0.04138973  0.02727427  0.34520340    -0.32800
C903        C  0.04110400  0.02681877  0.32372501     0.36400
C904        C  0.50903804  0.50560652  0.31311458    -0.05700
C905        C  0.47778392  0.48547573  0.32450319    -0.32700
C906        C  0.47825381  0.48565841  0.34588825     0.36300
H907        H  0.06616406  0.04334511  0.35315394     0.16700
O908        O  0.07239618  0.04676106  0.31336490    -0.60200
H909        H  0.45278447  0.46913184  0.31684596     0.16700
O910        O  0.44719947  0.46559224  0.35644757    -0.60300
H911        H  0.43821595  0.48197166  0.35959949     0.43700
H912        H  0.07492853  0.07057809  0.31198397     0.43700
O913        O  0.47380920  0.94230706  0.25289361    -0.74300
O914        O  0.47510041  0.53064803  0.25165957    -0.74400
O915        O  0.47210100  0.98421956  0.22291287    -0.74400
O916        O  0.47713006  0.98884315  0.28155645    -0.74500
O917        O  0.03599825  0.51737307  0.27982519    -0.74400
O918        O  0.03105005  0.51393164  0.22135812    -0.74400
O919        O  0.03399901  0.55974323  0.25028378    -0.74400
O920        O  0.03265293  0.97119153  0.25082958    -0.74400
Ni921      Ni  0.47243423  0.98548776  0.25232836     1.25400
Ni922      Ni  0.03550728  0.51655011  0.25051509     1.25400
C923        C  0.00302429  0.94207569  0.25185433     0.87800
C924        C  0.00467189  0.55982380  0.25084939     0.87800
C925        C  0.50090574  0.99844593  0.21244988     0.87800
C926        C  0.50739234  0.00394168  0.29040010     0.88000
O927        O  0.03051957  0.72074989  0.24978757    -0.74300
O928        O  0.02873859  0.80751988  0.25019946    -0.74400
O929        O  0.02877478  0.76353416  0.27923570    -0.74400
O930        O  0.03022145  0.76463621  0.22065448    -0.74500
O931        O  0.47127922  0.73487064  0.22042003    -0.74400
O932        O  0.46976191  0.73270739  0.27900179    -0.74400
O933        O  0.46978112  0.77753884  0.25027245    -0.74400
O934        O  0.47158901  0.69054715  0.24930223    -0.74400
Ni935      Ni  0.03164655  0.76520100  0.24996770     1.25400
Ni936      Ni  0.46849021  0.73285035  0.24970941     1.25400
C937        C  0.00130236  0.69121825  0.24963341     0.87800
C938        C  0.99911346  0.80701137  0.25047497     0.87800
C939        C  0.99906684  0.74796943  0.28877588     0.87800
C940        C  0.00095364  0.74967101  0.21081921     0.88000
O941        O  0.22211496  0.53321379  0.25065203    -0.74300
O942        O  0.22080494  0.94490132  0.24974777    -0.74400
O943        O  0.22346659  0.98924739  0.27949661    -0.74400
O944        O  0.21954499  0.98852559  0.22090535    -0.74500
O945        O  0.27842901  0.51711861  0.21947934    -0.74400
O946        O  0.28242879  0.51896879  0.27801836    -0.74400
O947        O  0.27971892  0.97390319  0.24861312    -0.74400
O948        O  0.28098049  0.56239224  0.24891308    -0.74400
Ni949      Ni  0.21939968  0.98802291  0.25025641     1.25400
Ni950      Ni  0.28249399  0.51916899  0.24870052     1.25400
C951        C  0.25165271  0.56243431  0.24990749     0.87800
C952        C  0.25008476  0.94476101  0.24908333     0.87800
C953        C  0.25361191  0.00416564  0.28842901     0.87800
C954        C  0.24835934  0.00200641  0.21047621     0.88000
O955        O  0.21664709  0.73562888  0.22031335    -0.74300
O956        O  0.21823449  0.73739256  0.27884225    -0.74400
O957        O  0.21706217  0.78046383  0.24920193    -0.74400
O958        O  0.21830889  0.69321376  0.24984100    -0.74500
O959        O  0.27723002  0.72327049  0.24944609    -0.74400
O960        O  0.27598982  0.81026411  0.24844141    -0.74400
O961        O  0.27722663  0.76792691  0.27836052    -0.74400
O962        O  0.27557094  0.76538518  0.21967171    -0.74400
Ni963      Ni  0.21547109  0.73565756  0.24958556     1.25400
Ni964      Ni  0.27860323  0.76781663  0.24895725     1.25400
C965        C  0.24584586  0.74991704  0.21027983     0.87800
C966        C  0.24786873  0.75254774  0.28829341     0.87800
C967        C  0.24643399  0.80988099  0.24866115     0.87800
C968        C  0.24797260  0.69377409  0.24969152     0.88000
O969        O  0.49556588  0.97559734  0.38806334    -0.74300
O970        O  0.49316931  0.97234141  0.44666887    -0.74400
O971        O  0.45086564  0.97393624  0.41718454    -0.74400
O972        O  0.03838714  0.97385421  0.41739762    -0.74500
O973        O  0.06831436  0.53277839  0.41855495    -0.74400
O974        O  0.48047715  0.53288959  0.41779127    -0.74400
O975        O  0.02271424  0.53132859  0.44754116    -0.74400
O976        O  0.02625706  0.53469015  0.38889100    -0.74400
Ni977      Ni  0.49355751  0.97186128  0.41730096     1.25400
Ni978      Ni  0.02553146  0.53504914  0.41825499     1.25400
C979        C  0.51094598  0.00558709  0.37886566     0.87800
C980        C  0.00694704  0.00136623  0.45680597     0.87800
C981        C  0.45111454  0.00342569  0.41737863     0.87800
C982        C  0.06782830  0.00314008  0.41789779     0.88000
O983        O  0.46961663  0.77783229  0.41634188    -0.74300
O984        O  0.05729988  0.77776745  0.41551146    -0.74400
O985        O  0.01265126  0.77680979  0.38664021    -0.74400
O986        O  0.01443094  0.77866585  0.44524752    -0.74500
O987        O  0.48511227  0.71971576  0.44584031    -0.74400
O988        O  0.48287738  0.71776858  0.38722494    -0.74400
O989        O  0.02800948  0.71876714  0.41616063    -0.74400
O990        O  0.44015750  0.71889558  0.41703460    -0.74400
Ni991      Ni  0.01452310  0.77984836  0.41590264     1.25400
Ni992      Ni  0.48297918  0.71667717  0.41657694     1.25400
C993        C  0.44029753  0.74837037  0.41683573     0.87800
C994        C  0.05723332  0.74835971  0.41579796     0.87800
C995        C  0.99744277  0.74702351  0.37725847     0.87800
C996        C  0.00020208  0.74946718  0.45527552     0.88000
O997        O  0.28707529  0.97127464  0.41530772    -0.74300
O998        O  0.19993883  0.97284654  0.41619197    -0.74400
O999        O  0.24284087  0.97228584  0.38645330    -0.74400
O1000       O  0.24361414  0.97134864  0.44500360    -0.74500
O1001       O  0.27343625  0.53029629  0.44520649    -0.74400
O1002       O  0.27381607  0.53132319  0.38657718    -0.74400
O1003       O  0.23032654  0.53179777  0.41606941    -0.74400
O1004       O  0.31710641  0.53021980  0.41578292    -0.74400
Ni1005     Ni  0.24232828  0.96982497  0.41571555     1.25400
Ni1006     Ni  0.27476308  0.53299020  0.41591172     1.25400
C1007       C  0.31658309  0.00058513  0.41560512     0.87800
C1008       C  0.20073978  0.00266890  0.41620113     0.87800
C1009       C  0.25787234  0.00189299  0.37686041     0.87800
C1010       C  0.25838899  0.00068425  0.45483355     0.88000
O1011       O  0.26421966  0.78030613  0.38703506    -0.74300
O1012       O  0.26341646  0.77834392  0.44575468    -0.74400
O1013       O  0.30795493  0.77992555  0.41628058    -0.74400
O1014       O  0.21947748  0.77866141  0.41661929    -0.74500
O1015       O  0.19053456  0.71964594  0.41663432    -0.74400
O1016       O  0.27896488  0.72100612  0.41527439    -0.74400
O1017       O  0.23514225  0.71942166  0.44516908    -0.74400
O1018       O  0.23426547  0.72128287  0.38646895    -0.74400
Ni1019     Ni  0.26477105  0.78141043  0.41642474     1.25400
Ni1020     Ni  0.23371826  0.71825564  0.41583300     1.25400
C1021       C  0.24933610  0.75111207  0.37704501     0.87800
C1022       C  0.24930507  0.74855227  0.45520856     0.87800
C1023       C  0.30812402  0.75062444  0.41590026     0.87800
C1024       C  0.19038140  0.74894572  0.41688680     0.88000
O1025       O  0.47189631  0.52530562  0.08454291    -0.74300
O1026       O  0.47092269  0.93714949  0.08467526    -0.74400
O1027       O  0.47105450  0.98107777  0.11405285    -0.74400
O1028       O  0.47182753  0.98147357  0.05533502    -0.74500
O1029       O  0.03083852  0.50927814  0.05538525    -0.74400
O1030       O  0.03003665  0.51111200  0.11397451    -0.74400
O1031       O  0.02983388  0.96604401  0.08529251    -0.74400
O1032       O  0.03081892  0.55432185  0.08394883    -0.74400
Ni1033     Ni  0.46932656  0.98019874  0.08466877     1.25400
Ni1034     Ni  0.03248273  0.51121763  0.08468125     1.25400
C1035       C  0.50149834  0.55445396  0.08394116     0.87800
C1036       C  0.50016783  0.93693154  0.08494341     0.87800
C1037       C  0.50051325  0.99638970  0.12371677     0.87800
C1038       C  0.50144923  0.99544277  0.04570015     0.88000
O1039       O  0.03007118  0.80399168  0.08353129    -0.74300
O1040       O  0.02913376  0.71586077  0.08258524    -0.74400
O1041       O  0.03002673  0.76094100  0.05376351    -0.74400
O1042       O  0.02916995  0.75918519  0.11234736    -0.74500
O1043       O  0.47023151  0.72996005  0.11220643    -0.74400
O1044       O  0.47108295  0.73239356  0.05356248    -0.74400
O1045       O  0.47022417  0.68683551  0.08221990    -0.74400
O1046       O  0.47114831  0.77508424  0.08357894    -0.74400
Ni1047     Ni  0.03167660  0.76096555  0.08305603     1.25400
Ni1048     Ni  0.46855882  0.72996013  0.08288345     1.25400
C1049       C  0.00081611  0.80419423  0.08373599     0.87800
C1050       C  0.99953904  0.68669437  0.08228176     0.87800
C1051       C  0.00075785  0.74735881  0.04395685     0.87800
C1052       C  0.99955438  0.74473426  0.12199885     0.88000
O1053       O  0.27088546  0.51001148  0.11182323    -0.74300
O1054       O  0.27154093  0.51034538  0.05338970    -0.74400
O1055       O  0.27089933  0.55414168  0.08253949    -0.74400
O1056       O  0.27089531  0.96620727  0.08250823    -0.74500
O1057       O  0.21196939  0.93688714  0.08231877    -0.74400
O1058       O  0.21195209  0.52452793  0.08282952    -0.74400
O1059       O  0.21252361  0.98145420  0.05320517    -0.74400
O1060       O  0.21194996  0.98030844  0.11205293    -0.74400
Ni1061     Ni  0.27313172  0.51124601  0.08259316     1.25400
Ni1062     Ni  0.20998439  0.97973555  0.08261567     1.25400
C1063       C  0.24149061  0.99503665  0.12167249     0.87800
C1064       C  0.24224962  0.99600480  0.04362521     0.87800
C1065       C  0.24133476  0.55385065  0.08254812     0.87800
C1066       C  0.24134947  0.93693596  0.08229570     0.88000
O1067       O  0.27290467  0.80486040  0.08314171    -0.74300
O1068       O  0.27250123  0.71683914  0.08253747    -0.74400
O1069       O  0.27443911  0.76192496  0.05380337    -0.74400
O1070       O  0.27146274  0.75980327  0.11205485    -0.74500
O1071       O  0.21252594  0.72998171  0.11165224    -0.74400
O1072       O  0.21537420  0.73374030  0.05297986    -0.74400
O1073       O  0.21356716  0.68768655  0.08147724    -0.74400
O1074       O  0.21397064  0.77561350  0.08294602    -0.74400
Ni1075     Ni  0.27489365  0.76189787  0.08294904     1.25400
Ni1076     Ni  0.21171744  0.73066607  0.08225379     1.25400
C1077       C  0.24350514  0.80484284  0.08296268     0.87800
C1078       C  0.24295559  0.68768895  0.08166049     0.87800
C1079       C  0.24544359  0.74834398  0.04381299     0.87800
C1080       C  0.24175226  0.74463120  0.12156040     0.88000
O1081       O  0.49070227  0.51592988  0.88919696    -0.74300
O1082       O  0.48899978  0.51244858  0.94776891    -0.74400
O1083       O  0.03347289  0.55817065  0.91918536    -0.74400
O1084       O  0.44613628  0.97032964  0.91767021    -0.74500
O1085       O  0.47570604  0.94095441  0.91692278    -0.74400
O1086       O  0.06333535  0.52910062  0.91853684    -0.74400
O1087       O  0.01886104  0.98332446  0.94705935    -0.74400
O1088       O  0.02073926  0.98697556  0.88842898    -0.74400
Ni1089     Ni  0.48878134  0.51524109  0.91849254     1.25400
Ni1090     Ni  0.02069536  0.98400115  0.91772143     1.25400
C1091       C  0.00611043  0.00217119  0.87912724     0.87800
C1092       C  0.00385343  0.99750069  0.95711226     0.87800
C1093       C  0.06289325  0.55826862  0.91899501     0.87800
C1094       C  0.44635521  0.94107326  0.91702489     0.88000
O1095       O  0.02880847  0.81153943  0.91677819    -0.74300
O1096       O  0.44153594  0.72295169  0.91654392    -0.74400
O1097       O  0.48472512  0.76650260  0.94601867    -0.74400
O1098       O  0.48501569  0.76786290  0.88742576    -0.74500
O1099       O  0.01480504  0.73865811  0.88689133    -0.74400
O1100       O  0.01585814  0.73859902  0.94553792    -0.74400
O1101       O  0.47183066  0.69431298  0.91643194    -0.74400
O1102       O  0.05873257  0.78252222  0.91593385    -0.74400
Ni1103     Ni  0.48397349  0.76828490  0.91672090     1.25400
Ni1104     Ni  0.01635402  0.73748912  0.91619316     1.25400
C1105       C  0.05826863  0.81165282  0.91621190     0.87800
C1106       C  0.44227358  0.69390701  0.91646242     0.87800
C1107       C  0.00022244  0.75230941  0.95542816     0.87800
C1108       C  0.99972397  0.75330816  0.87746679     0.88000
O1109       O  0.22228846  0.94319253  0.91561557    -0.74300
O1110       O  0.30982371  0.53144748  0.91651579    -0.74400
O1111       O  0.26523810  0.98634606  0.94540171    -0.74400
O1112       O  0.26712807  0.98817001  0.88675414    -0.74500
O1113       O  0.23774991  0.51771834  0.88677549    -0.74400
O1114       O  0.23463254  0.51474238  0.94544334    -0.74400
O1115       O  0.27978229  0.56033212  0.91689437    -0.74400
O1116       O  0.19260059  0.97244395  0.91532570    -0.74400
Ni1117     Ni  0.26719302  0.98624757  0.91607268     1.25400
Ni1118     Ni  0.23516999  0.51736159  0.91611690     1.25400
C1119       C  0.19290541  0.94322498  0.91539841     0.87800
C1120       C  0.30925422  0.56057721  0.91672398     0.87800
C1121       C  0.24935776  0.99997060  0.95510801     0.87800
C1122       C  0.25287694  0.00331757  0.87701831     0.88000
O1123       O  0.31095334  0.78064775  0.91632395    -0.74300
O1124       O  0.22312403  0.69326750  0.91699022    -0.74400
O1125       O  0.26667385  0.73677511  0.88729873    -0.74400
O1126       O  0.26717161  0.73719027  0.94590211    -0.74500
O1127       O  0.23769255  0.76668076  0.94596195    -0.74400
O1128       O  0.23755385  0.76659022  0.88747367    -0.74400
O1129       O  0.19369073  0.72277180  0.91700895    -0.74400
O1130       O  0.28186812  0.81051138  0.91650791    -0.74400
Ni1131     Ni  0.26802641  0.73593425  0.91661097     1.25400
Ni1132     Ni  0.23667770  0.76772512  0.91673272     1.25400
C1133       C  0.31105321  0.81007939  0.91627899     0.87800
C1134       C  0.19384627  0.69344662  0.91727706     0.87800
C1135       C  0.25210476  0.75173449  0.87766093     0.87800
C1136       C  0.25218746  0.75171610  0.95562616     0.88000
O1137       O  0.46932950  0.53094778  0.58479466    -0.74300
O1138       O  0.05687333  0.53048117  0.58435622    -0.74400
O1139       O  0.01314569  0.53063171  0.55530304    -0.74400
O1140       O  0.01333755  0.53097658  0.61389445    -0.74500
O1141       O  0.48430144  0.97200213  0.61411680    -0.74400
O1142       O  0.48287098  0.97164974  0.55527257    -0.74400
O1143       O  0.02722261  0.97151058  0.58408588    -0.74400
O1144       O  0.43966424  0.97200124  0.58528086    -0.74400
Ni1145     Ni  0.01417483  0.53282488  0.58458638     1.25400
Ni1146     Ni  0.48240493  0.96967304  0.58470476     1.25400
C1147       C  0.43995646  0.00155797  0.58516201     0.87800
C1148       C  0.05658139  0.00094568  0.58401795     0.87800
C1149       C  0.99851674  0.00120390  0.54556341     0.87800
C1150       C  0.99899400  0.00161359  0.62374101     0.88000
O1151       O  0.46848914  0.77752811  0.58311802    -0.74300
O1152       O  0.05573770  0.77660452  0.58367249    -0.74400
O1153       O  0.01295003  0.77721050  0.55401382    -0.74400
O1154       O  0.01134463  0.77704448  0.61265409    -0.74500
O1155       O  0.48252618  0.71796799  0.61269528    -0.74400
O1156       O  0.48281095  0.71826421  0.55404422    -0.74400
O1157       O  0.02620158  0.71763533  0.58336946    -0.74400
O1158       O  0.43881767  0.71856892  0.58356382    -0.74400
Ni1159     Ni  0.01319064  0.77918331  0.58334973     1.25400
Ni1160     Ni  0.48147019  0.71600170  0.58339148     1.25400
C1161       C  0.43912265  0.74813392  0.58356346     0.87800
C1162       C  0.05551462  0.74709476  0.58356976     0.87800
C1163       C  0.99830686  0.74774393  0.54428645     0.87800
C1164       C  0.99691777  0.74749699  0.62232458     0.88000
O1165       O  0.21769555  0.52806635  0.58138776    -0.74300
O1166       O  0.30559506  0.52845366  0.58331124    -0.74400
O1167       O  0.26302903  0.52731813  0.55306770    -0.74400
O1168       O  0.26043333  0.52924244  0.61158338    -0.74500
O1169       O  0.23142239  0.97018616  0.61205605    -0.74400
O1170       O  0.23366767  0.96836179  0.55349867    -0.74400
O1171       O  0.27629746  0.96949316  0.58376252    -0.74400
O1172       O  0.18833565  0.96908941  0.58193154    -0.74400
Ni1173     Ni  0.26267993  0.53036227  0.58228578     1.25400
Ni1174     Ni  0.23131496  0.96718102  0.58282122     1.25400
C1175       C  0.18843487  0.99853546  0.58154966     0.87800
C1176       C  0.30552629  0.99902304  0.58392111     0.87800
C1177       C  0.24930123  0.99764154  0.54357989     0.87800
C1178       C  0.24593276  0.99992515  0.62147739     0.88000
O1179       O  0.27810357  0.72033085  0.58371306    -0.74300
O1180       O  0.18890451  0.71730028  0.58327494    -0.74400
O1181       O  0.23424316  0.71897443  0.55400182    -0.74400
O1182       O  0.23319325  0.71898065  0.61272365    -0.74500
O1183       O  0.26052068  0.77800650  0.61264762    -0.74400
O1184       O  0.26287428  0.77790794  0.55410586    -0.74400
O1185       O  0.21707739  0.77625750  0.58283425    -0.74400
O1186       O  0.30636837  0.77928455  0.58401266    -0.74400
Ni1187     Ni  0.23259383  0.71679198  0.58340656     1.25400
Ni1188     Ni  0.26269730  0.77995186  0.58337739     1.25400
C1189       C  0.30698716  0.75019019  0.58407600     0.87800
C1190       C  0.18821437  0.74632924  0.58314788     0.87800
C1191       C  0.24900123  0.74856394  0.54430523     0.87800
C1192       C  0.24673377  0.74852039  0.62233602     0.88000
O1193       O  0.01657633  0.98801098  0.78056008    -0.74300
O1194       O  0.01288172  0.98523000  0.72201302    -0.74400
O1195       O  0.05885947  0.53034012  0.75016716    -0.74400
O1196       O  0.47038779  0.94320419  0.75235194    -0.74500
O1197       O  0.44153188  0.97328473  0.75205490    -0.74400
O1198       O  0.02985033  0.56024481  0.75122273    -0.74400
O1199       O  0.48530071  0.51666945  0.72227308    -0.74400
O1200       O  0.48658211  0.51700572  0.78101703    -0.74400
Ni1201     Ni  0.01568619  0.98561206  0.75127107     1.25400
Ni1202     Ni  0.48476356  0.51785346  0.75166973     1.25400
C1203       C  0.00208770  0.50282597  0.79048712     0.87800
C1204       C  0.99879631  0.00071521  0.71248318     0.87800
C1205       C  0.05896184  0.55981034  0.75043198     0.87800
C1206       C  0.44127236  0.94378153  0.75228536     0.88000
O1207       O  0.05608077  0.77926276  0.74911524    -0.74300
O1208       O  0.46835226  0.69146497  0.75046957    -0.74400
O1209       O  0.01137420  0.73441752  0.72048536    -0.74400
O1210       O  0.01316182  0.73642579  0.77908749    -0.74500
O1211       O  0.48323173  0.76549381  0.77916814    -0.74400
O1212       O  0.48259067  0.76462343  0.72058814    -0.74400
O1213       O  0.43909466  0.72113962  0.75024590    -0.74400
O1214       O  0.02675852  0.80887970  0.74948239    -0.74400
Ni1215     Ni  0.01328298  0.73432561  0.74979330     1.25400
Ni1216     Ni  0.48185217  0.76605533  0.74987441     1.25400
C1217       C  0.05600869  0.80861938  0.74914214     0.87800
C1218       C  0.43911859  0.69176957  0.75048417     0.87800
C1219       C  0.99688916  0.74944290  0.71084204     0.87800
C1220       C  0.99863726  0.75141837  0.78881372     0.88000
O1221       O  0.21730688  0.94211710  0.74892504    -0.74300
O1222       O  0.30585568  0.52881853  0.74856086    -0.74400
O1223       O  0.26216369  0.98569387  0.77811678    -0.74400
O1224       O  0.26098157  0.98557781  0.71941287    -0.74500
O1225       O  0.23300985  0.51660320  0.71986997    -0.74400
O1226       O  0.23317441  0.51562583  0.77843787    -0.74400
O1227       O  0.27734365  0.55922935  0.74926637    -0.74400
O1228       O  0.18858901  0.97233170  0.74903672    -0.74400
Ni1229     Ni  0.26255113  0.98443028  0.74873235     1.25400
Ni1230     Ni  0.23196173  0.51697448  0.74916787     1.25400
C1231       C  0.18826014  0.94276007  0.74886529     0.87800
C1232       C  0.30632280  0.55840532  0.74907793     0.87800
C1233       C  0.24827651  0.50118606  0.78801611     0.87800
C1234       C  0.24703876  0.50133590  0.70996434     0.88000
O1235       O  0.22250414  0.69202837  0.74929733    -0.74300
O1236       O  0.30959146  0.78036324  0.74942757    -0.74400
O1237       O  0.26645836  0.73556820  0.77867894    -0.74400
O1238       O  0.26539097  0.73676859  0.72003594    -0.74500
O1239       O  0.23586027  0.76622907  0.72089919    -0.74400
O1240       O  0.23638329  0.76442054  0.77940224    -0.74400
O1241       O  0.27979048  0.80948051  0.75038451    -0.74400
O1242       O  0.19261934  0.72107622  0.74996957    -0.74400
Ni1243     Ni  0.26708494  0.73517738  0.74931721     1.25400
Ni1244     Ni  0.23509771  0.76632287  0.75018647     1.25400
C1245       C  0.19308726  0.69190114  0.74952939     0.87800
C1246       C  0.30920888  0.80953958  0.75017245     0.87800
C1247       C  0.25162647  0.74990002  0.78876530     0.87800
C1248       C  0.25023822  0.75151361  0.71078625     0.88000
C1249       C  0.34060802  0.59217040  0.74964009    -0.05400
C1250       C  0.34055627  0.62431458  0.75088007    -0.32800
C1251       C  0.37217450  0.65674998  0.75134149     0.36400
C1252       C  0.40502142  0.65773684  0.75057298    -0.05700
C1253       C  0.40512375  0.62555952  0.74958719    -0.32700
C1254       C  0.37343888  0.59306004  0.74922075     0.36300
H1255       H  0.31582591  0.62450899  0.75149107     0.16700
O1256       O  0.37043885  0.68723218  0.75286981    -0.60200
H1257       H  0.42989297  0.62543597  0.74901980     0.16700
O1258       O  0.37508156  0.56248071  0.74814350    -0.60300
H1259       H  0.37699102  0.55644358  0.76255427     0.43700
H1260       H  0.36721687  0.69302169  0.73863449     0.43700
C1261       C  0.15413082  0.90871917  0.74862190    -0.05400
C1262       C  0.15443819  0.87667637  0.74992737    -0.32800
C1263       C  0.12296486  0.84404794  0.75008936     0.36400
C1264       C  0.09002323  0.84274386  0.74880984    -0.05700
C1265       C  0.08969142  0.87476021  0.74729171    -0.32700
C1266       C  0.12121895  0.90742319  0.74707291     0.36300
H1267       H  0.17924871  0.87673345  0.75099410     0.16700
O1268       O  0.12494974  0.81368362  0.75142945    -0.60200
H1269       H  0.06484848  0.87463306  0.74619390     0.16700
O1270       O  0.11933712  0.93781182  0.74548218    -0.60300
H1271       H  0.11866624  0.94170800  0.73055975     0.43700
H1272       H  0.12554812  0.80947296  0.76631607     0.43700
C1273       C  0.40709432  0.90978931  0.75220841    -0.05400
C1274       C  0.40736192  0.87776610  0.75365562    -0.32800
C1275       C  0.37594498  0.84512925  0.75314101     0.36400
C1276       C  0.34308948  0.84377394  0.75093633    -0.05700
C1277       C  0.34272762  0.87579750  0.74970316    -0.32700
C1278       C  0.37420604  0.90850226  0.75027304     0.36300
H1279       H  0.43211767  0.87783925  0.75521984     0.16700
O1280       O  0.37791622  0.81478840  0.75472445    -0.55400
H1281       H  0.31792433  0.87563346  0.74813969     0.16700
O1282       O  0.37229656  0.93891277  0.74897947    -0.60300
H1283       H  0.37242388  0.94357291  0.73409934     0.43700
H1284       H  0.37675466  0.80988222  0.76962975     0.43700
C1285       C  0.09313352  0.59374350  0.74985634    -0.05400
C1286       C  0.12500447  0.59333427  0.74764146    -0.32800
C1287       C  0.15769251  0.62484368  0.74743432     0.36400
C1288       C  0.15907985  0.65780121  0.74938737    -0.05700
C1289       C  0.12718637  0.65817179  0.75137008    -0.32700
C1290       C  0.09456528  0.62674730  0.75155614     0.36300
H1291       H  0.12474401  0.56845553  0.74609986     0.16700
O1292       O  0.18795868  0.62295161  0.74497954    -0.60200
H1293       H  0.12735090  0.68300211  0.75291406     0.16700
O1294       O  0.06437088  0.62880896  0.75387423    -0.60300
H1295       H  0.05816880  0.63254532  0.73985160     0.43700
H1296       H  0.19401265  0.61867055  0.75891724     0.43700
C1297       C  0.24684489  0.74873429  0.64492377    -0.05400
C1298       C  0.24367316  0.77503606  0.65553940    -0.32800
C1299       C  0.24432282  0.77611439  0.67696772     0.36400
C1300       C  0.24897027  0.75101965  0.68814126    -0.05700
C1301       C  0.25220934  0.72479322  0.67744992    -0.32700
C1302       C  0.25090785  0.72335509  0.65606542     0.36300
H1303       H  0.24033767  0.79464937  0.64719387     0.16700
O1304       O  0.24050128  0.80187951  0.68675419    -0.60200
H1305       H  0.25547404  0.70505640  0.68569572     0.16700
O1306       O  0.25415264  0.69729449  0.64622303    -0.60300
H1307       H  0.27961346  0.70829389  0.64260370     0.43700
H1308       H  0.26496962  0.82154394  0.68911614     0.43700
C1309       C  0.24631980  0.00036104  0.64408244    -0.05400
C1310       C  0.24625123  0.02833703  0.65471573    -0.32800
C1311       C  0.24639054  0.02902914  0.67616129     0.36400
C1312       C  0.24697316  0.00159956  0.68732307    -0.05700
C1313       C  0.24769456  0.47402133  0.67663718    -0.32700
C1314       C  0.24731464  0.47320993  0.65524405     0.36300
H1315       H  0.24572398  0.04956581  0.64638778     0.16700
O1316       O  0.24625324  0.05678474  0.68599899    -0.60200
H1317       H  0.24826406  0.45276100  0.68489828     0.16700
O1318       O  0.24840527  0.44593615  0.64541800    -0.60300
H1319       H  0.27386304  0.45482486  0.64262130     0.43700
H1320       H  0.27155439  0.07441026  0.68830772     0.43700
C1321       C  0.34123744  0.75057325  0.58453572    -0.05400
C1322       C  0.34114790  0.71872366  0.58808456    -0.32800
C1323       C  0.37258100  0.71749738  0.58795155     0.36400
C1324       C  0.40525042  0.74854218  0.58414004    -0.05700
C1325       C  0.40545834  0.78057629  0.58099452    -0.32700
C1326       C  0.37398273  0.78184494  0.58130369     0.36300
H1327       H  0.31651848  0.69441355  0.59103117     0.16700
O1328       O  0.37096396  0.68587486  0.59210487    -0.60200
H1329       H  0.43013582  0.80488164  0.57813829     0.16700
O1330       O  0.37561837  0.81366857  0.57785538    -0.60300
H1331       H  0.38084615  0.82552016  0.59140259     0.43700
H1332       H  0.36507351  0.67303280  0.57886358     0.43700
C1333       C  0.08951759  0.74700814  0.58364772    -0.05400
C1334       C  0.08975491  0.71547107  0.58782937    -0.32800
C1335       C  0.12148125  0.71463424  0.58779188     0.36400
C1336       C  0.15386452  0.74570787  0.58337679    -0.05700
C1337       C  0.15353802  0.77717818  0.57933816    -0.32700
C1338       C  0.12199254  0.77811384  0.57958613     0.36300
H1339       H  0.06528442  0.69132484  0.59133898     0.16700
O1340       O  0.12053221  0.68359841  0.59278073    -0.60200
H1341       H  0.17793468  0.80142880  0.57588644     0.16700
O1342       O  0.12330887  0.80954697  0.57528877    -0.60300
H1343       H  0.12927320  0.82257949  0.58847100     0.43700
H1344       H  0.11399581  0.66959116  0.57994159     0.43700
C1345       C  0.99676549  0.74761694  0.64491052    -0.05400
C1346       C  0.49318869  0.77377430  0.65537490    -0.32800
C1347       C  0.49251112  0.77434390  0.67679621     0.36400
C1348       C  0.99664721  0.74911599  0.68816383    -0.05700
C1349       C  0.00076441  0.72326397  0.67762398    -0.32700
C1350       C  0.00031423  0.72206133  0.65619820     0.36300
H1351       H  0.49035566  0.79358578  0.64690583     0.16700
O1352       O  0.48891738  0.80037757  0.68640636    -0.60200
H1353       H  0.00397816  0.70361195  0.68600250     0.16700
O1354       O  0.00486886  0.69672169  0.64644364    -0.60300
H1355       H  0.98106983  0.67519356  0.64633863     0.43700
H1356       H  0.46308678  0.79160599  0.68659155     0.43700
C1357       C  0.40583127  0.00149898  0.58535512    -0.05400
C1358       C  0.37395751  0.96935134  0.58803887    -0.32800
C1359       C  0.34124439  0.96806897  0.58779254     0.36400
C1360       C  0.33973358  0.99934985  0.58471019    -0.05700
C1361       C  0.37161995  0.53156420  0.58229731    -0.32700
C1362       C  0.40434841  0.53290137  0.58276339     0.36300
H1363       H  0.37423383  0.94489081  0.59039211     0.16700
O1364       O  0.31105769  0.93613498  0.59107746    -0.60200
H1365       H  0.37134382  0.55602781  0.57995358     0.16700
O1366       O  0.43458993  0.56505647  0.58022114    -0.60300
H1367       H  0.44038085  0.57575929  0.59408739     0.43700
H1368       H  0.30510405  0.92417745  0.57755794     0.43700
C1369       C  0.15448984  0.99875717  0.58172392    -0.05400
C1370       C  0.15470043  0.53038654  0.58627468    -0.32800
C1371       C  0.12323158  0.53151016  0.58722377     0.36400
C1372       C  0.09047916  0.00065803  0.58338253    -0.05700
C1373       C  0.09024997  0.96902612  0.57876783    -0.32700
C1374       C  0.12175632  0.96790374  0.57784092     0.36300
H1375       H  0.17938564  0.55443620  0.58945012     0.16700
O1376       O  0.12497968  0.56297813  0.59205501    -0.60200
H1377       H  0.06553341  0.94496912  0.57565923     0.16700
O1378       O  0.12007089  0.93643791  0.57309336    -0.60300
H1379       H  0.12243461  0.93664398  0.55796652     0.43700
H1380       H  0.12291402  0.56281903  0.60719921     0.43700
C1381       C  0.99935547  0.00183577  0.64650830    -0.05400
C1382       C  0.99293788  0.97119745  0.65723437    -0.32800
C1383       C  0.99310697  0.97061655  0.67869406     0.36400
C1384       C  0.99861067  0.00059721  0.68986469    -0.05700
C1385       C  0.50474421  0.53110996  0.67925009    -0.32700
C1386       C  0.50585486  0.53218207  0.65780547     0.36300
H1387       H  0.98808083  0.94761641  0.64898322     0.16700
O1388       O  0.98647073  0.94013999  0.68860230    -0.60200
H1389       H  0.50943435  0.55453515  0.68762939     0.16700
O1390       O  0.51245784  0.56281341  0.64811474    -0.60300
H1391       H  0.53863542  0.57776681  0.64773258     0.43700
H1392       H  0.00951378  0.94075012  0.68881766     0.43700
C1393       C  0.25211096  0.75171289  0.85491909    -0.05400
C1394       C  0.26595830  0.73325982  0.84426305    -0.32800
C1395       C  0.26599926  0.73228052  0.82283566     0.36400
C1396       C  0.25209243  0.75009334  0.81150665    -0.05700
C1397       C  0.23844068  0.76870560  0.82217427    -0.32700
C1398       C  0.23854138  0.76982507  0.84356991     0.36300
H1399       H  0.27672588  0.71926383  0.85253608     0.16700
O1400       O  0.27996022  0.71398533  0.81323169    -0.60200
H1401       H  0.22774267  0.78279551  0.81393116     0.16700
O1402       O  0.22507993  0.78862549  0.85311933    -0.60300
H1403       H  0.24530953  0.81316312  0.85419669     0.43700
H1404       H  0.26009816  0.68923577  0.81227792     0.43700
C1405       C  0.25005381  0.50266509  0.81077824    -0.05400
C1406       C  0.26610857  0.48623667  0.82124383    -0.32800
C1407       C  0.26813000  0.48697812  0.84265723     0.36400
C1408       C  0.25336035  0.00387853  0.85422532    -0.05700
C1409       C  0.23814438  0.02109653  0.84373594    -0.32700
C1410       C  0.23643961  0.02066889  0.82232471     0.36300
H1411       H  0.27722622  0.47262359  0.81283081     0.16700
O1412       O  0.28412470  0.47050967  0.85202452    -0.60200
H1413       H  0.22717063  0.03485763  0.85213508     0.16700
O1414       O  0.22178533  0.03842224  0.81293649    -0.60300
H1415       H  0.19592501  0.02152223  0.81286087     0.43700
H1416       H  0.30959455  0.48871232  0.85266719     0.43700
C1417       C  0.40848971  0.65955656  0.91641636    -0.05400
C1418       C  0.37621549  0.65941787  0.91594637    -0.32800
C1419       C  0.34385382  0.62764636  0.91589361     0.36400
C1420       C  0.34309403  0.59487169  0.91661134    -0.05700
C1421       C  0.37536824  0.59499312  0.91693521    -0.32700
C1422       C  0.40775024  0.62677849  0.91683505     0.36300
H1423       H  0.37588590  0.68409689  0.91551584     0.16700
O1424       O  0.31321400  0.62917753  0.91524310    -0.60200
H1425       H  0.37567643  0.57030000  0.91727513     0.16700
O1426       O  0.43841793  0.62526467  0.91687381    -0.60300
H1427       H  0.44341815  0.62370366  0.93152645     0.43700
H1428       H  0.30856126  0.63016625  0.90046457     0.43700
C1429       C  0.15869881  0.90930796  0.91537265    -0.05400
C1430       C  0.12690697  0.90986012  0.91309754    -0.32800
C1431       C  0.09410778  0.87852311  0.91324039     0.36400
C1432       C  0.09243489  0.84559212  0.91586444    -0.05700
C1433       C  0.12423114  0.84503939  0.91803662    -0.32700
C1434       C  0.15701004  0.87634898  0.91790133     0.36300
H1435       H  0.12731947  0.93473640  0.91110763     0.16700
O1436       O  0.06397076  0.88060128  0.91083016    -0.60200
H1437       H  0.12383975  0.82017696  0.92004751     0.16700
O1438       O  0.18711938  0.87420673  0.92027407    -0.60300
H1439       H  0.19090991  0.87499863  0.93528290     0.43700
H1440       H  0.05991872  0.87925749  0.89583384     0.43700
C1441       C  0.99942912  0.75341021  0.85479174    -0.05400
C1442       C  0.02465748  0.74870729  0.84394912    -0.32800
C1443       C  0.02509038  0.74857556  0.82253118     0.36400
C1444       C  0.99951539  0.75246399  0.81147533    -0.05700
C1445       C  0.47451410  0.75756202  0.82230364    -0.32700
C1446       C  0.47427379  0.75801622  0.84373185     0.36300
H1447       H  0.04455535  0.74562954  0.85209104     0.16700
O1448       O  0.05100144  0.74513166  0.81261437    -0.60200
H1449       H  0.45466270  0.76070562  0.81415267     0.16700
O1450       O  0.44903482  0.76257935  0.85363989    -0.60300
H1451       H  0.42868201  0.73832836  0.85568811     0.43700
H1452       H  0.07073240  0.76971603  0.81053242     0.43700
C1453       C  0.41205914  0.90723116  0.91643140    -0.05400
C1454       C  0.38062556  0.90799664  0.91298490    -0.32800
C1455       C  0.34770368  0.87680401  0.91267633     0.36400
C1456       C  0.34549726  0.84378176  0.91605665    -0.05700
C1457       C  0.37696496  0.84297536  0.91926192    -0.32700
C1458       C  0.40990151  0.87416468  0.91951471     0.36300
H1459       H  0.38143915  0.93294450  0.91040842     0.16700
O1460       O  0.31795654  0.87911338  0.90908462    -0.60200
H1461       H  0.37615317  0.81802964  0.92184204     0.16700
O1462       O  0.43968606  0.87183379  0.92290743    -0.60300
H1463       H  0.44249045  0.87282699  0.93800709     0.43700
H1464       H  0.31489076  0.87726080  0.89400078     0.43700
C1465       C  0.09660239  0.59265897  0.91904202    -0.05400
C1466       C  0.09562324  0.62439824  0.91814218    -0.32800
C1467       C  0.12679568  0.65732638  0.91772591     0.36400
C1468       C  0.16003378  0.65915769  0.91802394    -0.05700
C1469       C  0.16098728  0.62742516  0.91916043    -0.32700
C1470       C  0.12983823  0.59452019  0.91961407     0.36300
H1471       H  0.07053154  0.62385986  0.91765448     0.16700
O1472       O  0.12425498  0.68740310  0.91666452    -0.60200
H1473       H  0.18606206  0.62792918  0.91963937     0.16700
O1474       O  0.13240525  0.56447014  0.92086614    -0.60300
H1475       H  0.13508669  0.55867147  0.90651220     0.43700
H1476       H  0.12164583  0.69304300  0.93106823     0.43700
C1477       C  0.00629113  0.00341920  0.85646187    -0.05400
C1478       C  0.48033609  0.00777623  0.84638480    -0.32800
C1479       C  0.47864764  0.00765873  0.82500512     0.36400
C1480       C  0.00346721  0.00353104  0.81316954    -0.05700
C1481       C  0.02980893  0.49970433  0.82323617    -0.32700
C1482       C  0.03151970  0.49987049  0.84465808     0.36300
H1483       H  0.46062388  0.01047671  0.85510957     0.16700
O1484       O  0.45208980  0.01084864  0.81590646    -0.60200
H1485       H  0.04942627  0.49689613  0.81447662     0.16700
O1486       O  0.05811510  0.49680543  0.85382602    -0.60300
H1487       H  0.07787761  0.52146683  0.85546648     0.43700
H1488       H  0.43218567  0.98622553  0.81438591     0.43700
C1489       C  0.24697133  0.74929362  0.02138210    -0.05400
C1490       C  0.27054404  0.74132312  0.01129031    -0.32800
C1491       C  0.27221482  0.74138236  0.98990920     0.36400
C1492       C  0.25099684  0.75090763  0.97828662    -0.05700
C1493       C  0.22783624  0.75947412  0.98856536    -0.32700
C1494       C  0.22540296  0.75825583  0.00992671     0.36300
H1495       H  0.28722969  0.73429477  0.02002523     0.16700
O1496       O  0.29511059  0.73267150  0.98063464    -0.60200
H1497       H  0.21120201  0.76681407  0.98004853     0.16700
O1498       O  0.20300517  0.76733967  0.01949695    -0.60300
H1499       H  0.17947358  0.74545942  0.01942752     0.43700
H1500       H  0.28194530  0.70642465  0.97982916     0.43700
C1501       C  0.24135585  0.90286839  0.08207500    -0.05400
C1502       C  0.27364974  0.90322069  0.08024168    -0.32800
C1503       C  0.27487141  0.87175978  0.08047547     0.36400
C1504       C  0.24336091  0.83884575  0.08261664    -0.05700
C1505       C  0.21099517  0.83845222  0.08415158    -0.32700
C1506       C  0.20974057  0.86989380  0.08374458     0.36300
H1507       H  0.29828827  0.92804951  0.07859361     0.16700
O1508       O  0.30703652  0.87364212  0.07812235    -0.60200
H1509       H  0.18633135  0.81361434  0.08569045     0.16700
O1510       O  0.17742034  0.86790185  0.08538079    -0.60300
H1511       H  0.16825708  0.86434642  0.07117891     0.43700
H1512       H  0.31736911  0.87816448  0.09205662     0.43700
C1513       C  0.24119135  0.58782658  0.08199512    -0.05400
C1514       C  0.27253656  0.61931598  0.07711527    -0.32800
C1515       C  0.27336581  0.65180490  0.07645725     0.36400
C1516       C  0.24260278  0.65350172  0.08109396    -0.05700
C1517       C  0.21105411  0.62192929  0.08549260    -0.32700
C1518       C  0.21014605  0.58940138  0.08602370     0.36300
H1519       H  0.29658421  0.61882484  0.07358520     0.16700
O1520       O  0.30444068  0.68164224  0.07116249    -0.60200
H1521       H  0.18696988  0.62241097  0.08893108     0.16700
O1522       O  0.17872700  0.55943801  0.09065051    -0.60300
H1523       H  0.17812623  0.55780637  0.10581685     0.43700
H1524       H  0.30331128  0.68367446  0.05608185     0.43700
C1525       C  0.24756079  0.99837156  0.97775633    -0.05400
C1526       C  0.21908915  0.49844398  0.98787964    -0.32800
C1527       C  0.21653159  0.49689262  0.00928464     0.36400
C1528       C  0.24321971  0.99619312  0.02099350    -0.05700
C1529       C  0.27179073  0.99631965  0.01089028    -0.32700
C1530       C  0.27384528  0.99685212  0.98948511     0.36300
H1531       H  0.19851056  0.49942843  0.97916248     0.16700
O1532       O  0.18867763  0.49768033  0.01859228    -0.60200
H1533       H  0.29256268  0.99571257  0.01962126     0.16700
O1534       O  0.30241145  0.99734876  0.98025554    -0.60300
H1535       H  0.29660404  0.97224992  0.97994818     0.43700
H1536       H  0.16901758  0.47275465  0.01857024     0.43700
C1537       C  0.00026870  0.75178553  0.97801623    -0.05400
C1538       C  0.03061489  0.75695665  0.98832621    -0.32800
C1539       C  0.03147795  0.75636606  0.00973772     0.36400
C1540       C  0.00112262  0.74922662  0.02126395    -0.05700
C1541       C  0.47069839  0.74398886  0.01085690    -0.32700
C1542       C  0.47029738  0.74575657  0.98944732     0.36300
H1543       H  0.05398506  0.76191722  0.97973673     0.16700
O1544       O  0.06184097  0.76177181  0.01914631    -0.60200
H1545       H  0.44713029  0.73873256  0.01932223     0.16700
O1546       O  0.43994213  0.73991766  0.97982309    -0.60300
H1547       H  0.44082111  0.76310194  0.98005133     0.43700
H1548       H  0.07703532  0.78787719  0.02015294     0.43700
C1549       C  0.99988316  0.90274411  0.08470852    -0.05400
C1550       C  0.03215941  0.90285093  0.08484443    -0.32800
C1551       C  0.03300184  0.87121205  0.08454356     0.36400
C1552       C  0.00109668  0.83836423  0.08411365    -0.05700
C1553       C  0.46882251  0.83825368  0.08394482    -0.32700
C1554       C  0.46798748  0.86989688  0.08407705     0.36300
H1555       H  0.05708055  0.92761600  0.08513479     0.16700
O1556       O  0.06528419  0.87294016  0.08432940    -0.60200
H1557       H  0.44390467  0.81349036  0.08356482     0.16700
O1558       O  0.43571883  0.86817802  0.08370615    -0.60300
H1559       H  0.42964588  0.86687818  0.06898263     0.43700
H1560       H  0.07209113  0.87447325  0.09893249     0.43700
C1561       C  0.99955095  0.65259820  0.08220168    -0.05400
C1562       C  0.03200165  0.65300627  0.08230542    -0.32800
C1563       C  0.03319551  0.62152879  0.08268921     0.36400
C1564       C  0.00148667  0.58851692  0.08315422    -0.05700
C1565       C  0.46903808  0.58809368  0.08277338    -0.32700
C1566       C  0.46784242  0.61957031  0.08235611     0.36300
H1567       H  0.05680436  0.67789912  0.08216023     0.16700
O1568       O  0.06561642  0.62357639  0.08294832    -0.60200
H1569       H  0.44423779  0.56319736  0.08290498     0.16700
O1570       O  0.43542412  0.61751905  0.08195810    -0.60300
H1571       H  0.42796542  0.61536695  0.09651089     0.43700
H1572       H  0.07268764  0.62520084  0.06834893     0.43700
C1573       C  0.50182082  0.99577111  0.02308986    -0.05400
C1574       C  0.02816351  0.99266599  0.01244548    -0.32800
C1575       C  0.02889954  0.99261811  0.99099468     0.36400
C1576       C  0.00350118  0.99665314  0.97980196    -0.05700
C1577       C  0.47750837  0.50031548  0.99052863    -0.32700
C1578       C  0.47641600  0.49970432  0.01194725     0.36300
H1579       H  0.04803191  0.98981201  0.02078442     0.16700
O1580       O  0.05529355  0.98984684  0.98119063    -0.60200
H1581       H  0.45773813  0.50346699  0.98229188     0.16700
O1582       O  0.45072044  0.50356480  0.02182417    -0.60300
H1583       H  0.46144811  0.52939312  0.02421065     0.43700
H1584       H  0.04675916  0.96406855  0.98059486     0.43700
C1585       C  0.24943624  0.74800658  0.47800064    -0.05400
C1586       C  0.26699941  0.78013353  0.48880167    -0.32800
C1587       C  0.26748720  0.78077278  0.51023266     0.36400
C1588       C  0.24986915  0.74882288  0.52150790    -0.05700
C1589       C  0.23263152  0.71665640  0.51071439    -0.32700
C1590       C  0.23219555  0.71602357  0.48925841     0.36300
H1591       H  0.28058451  0.80511281  0.48063603     0.16700
O1592       O  0.28504013  0.81296568  0.51989604    -0.60200
H1593       H  0.21905015  0.69170121  0.51890273     0.16700
O1594       O  0.21484933  0.68386088  0.47955275    -0.60300
H1595       H  0.19001348  0.67853132  0.47821210     0.43700
H1596       H  0.30974318  0.81796410  0.52140492     0.43700
C1597       C  0.25745679  0.00016796  0.47757630    -0.05400
C1598       C  0.24200135  0.96758285  0.48805896    -0.32800
C1599       C  0.23945517  0.96613363  0.50946925     0.36400
C1600       C  0.25201365  0.99766908  0.52090007    -0.05700
C1601       C  0.26811847  0.53020419  0.51041745    -0.32700
C1602       C  0.27096071  0.53168709  0.48908246     0.36300
H1603       H  0.23169471  0.94294742  0.47966533     0.16700
O1604       O  0.22433914  0.93368710  0.51893251    -0.60200
H1605       H  0.27852503  0.55490433  0.51874970     0.16700
O1606       O  0.28720100  0.56426268  0.47974437    -0.60300
H1607       H  0.26839891  0.57056206  0.47820622     0.43700
H1608       H  0.24399897  0.92873546  0.52088935     0.43700
C1609       C  0.00095318  0.74975342  0.47803901    -0.05400
C1610       C  0.48841150  0.71762560  0.48868731    -0.32800
C1611       C  0.48759306  0.71651075  0.51010876     0.36400
C1612       C  0.99940877  0.74796503  0.52150626    -0.05700
C1613       C  0.01263284  0.78021929  0.51086622    -0.32700
C1614       C  0.01370735  0.78136055  0.48941863     0.36300
H1615       H  0.47906701  0.69300152  0.48040783     0.16700
O1616       O  0.47586220  0.68450508  0.51965680    -0.60200
H1617       H  0.02209261  0.80483698  0.51916900     0.16700
O1618       O  0.02658392  0.81351268  0.47984216    -0.60300
H1619       H  0.05255224  0.82333019  0.47892996     0.43700
H1620       H  0.44970417  0.67335219  0.52011290     0.43700
C1621       C  0.34223614  0.75065069  0.41639771    -0.05400
C1622       C  0.34179896  0.71822414  0.41748842    -0.32800
C1623       C  0.37323982  0.71698630  0.41787864     0.36400
C1624       C  0.40630088  0.74862166  0.41704339    -0.05700
C1625       C  0.40676689  0.78110639  0.41625914    -0.32700
C1626       C  0.37529321  0.78235397  0.41612917     0.36300
H1627       H  0.31689775  0.69345811  0.41810731     0.16700
O1628       O  0.37112901  0.68460503  0.41944619    -0.60200
H1629       H  0.43168557  0.80586643  0.41575752     0.16700
O1630       O  0.37737032  0.81479496  0.41548131    -0.60300
H1631       H  0.37930097  0.82231687  0.42999121     0.43700
H1632       H  0.36772731  0.67545746  0.40522897     0.43700
C1633       C  0.15623491  0.74860564  0.41715692    -0.05400
C1634       C  0.15502217  0.77833564  0.40999815    -0.32800
C1635       C  0.12306652  0.77849865  0.40928870     0.36400
C1636       C  0.09136802  0.74864155  0.41599713    -0.05700
C1637       C  0.09260759  0.71899884  0.42336867    -0.32700
C1638       C  0.12466061  0.71892357  0.42417235     0.36300
H1639       H  0.17888768  0.80143836  0.40452672     0.16700
O1640       O  0.12320341  0.80793479  0.40175644    -0.60200
H1641       H  0.06873205  0.69595794  0.42888841     0.16700
O1642       O  0.12479200  0.68986171  0.43211688    -0.60300
H1643       H  0.13030582  0.69524421  0.44686040     0.43700
H1644       H  0.11825164  0.80330140  0.38691445     0.43700
C1645       C  0.00448840  0.00059882  0.47949809    -0.05400
C1646       C  0.02820940  0.53068288  0.49067296    -0.32800
C1647       C  0.02644652  0.53126357  0.51205016     0.36400
C1648       C  0.00038647  0.00142309  0.52283407    -0.05700
C1649       C  0.47656797  0.97128288  0.51167001    -0.32700
C1650       C  0.47827677  0.97077305  0.49022293     0.36300
H1651       H  0.04859563  0.55390569  0.48282854     0.16700
O1652       O  0.05074152  0.56112942  0.52219955    -0.60200
H1653       H  0.45621977  0.94810219  0.51956210     0.16700
O1654       O  0.45382151  0.94114639  0.47995518    -0.60300
H1655       H  0.43424161  0.94567402  0.47667757     0.43700
H1656       H  0.07067694  0.55707043  0.52531355     0.43700
C1657       C  0.41688704  0.00307978  0.41704576    -0.05400
C1658       C  0.38500196  0.97052454  0.41587587    -0.32800
C1659       C  0.35224292  0.96912143  0.41531288     0.36400
C1660       C  0.35071343  0.00069833  0.41594215    -0.05700
C1661       C  0.38260464  0.53321772  0.41717548    -0.32700
C1662       C  0.41531650  0.53461079  0.41785626     0.36300
H1663       H  0.38529198  0.94582839  0.41535082     0.16700
O1664       O  0.32198887  0.93663571  0.41442755    -0.60200
H1665       H  0.38236160  0.55793290  0.41776306     0.16700
O1666       O  0.44550239  0.56708358  0.41917724    -0.60300
H1667       H  0.44951999  0.57196621  0.43406375     0.43700
H1668       H  0.31810751  0.93077948  0.39963665     0.43700
C1669       C  0.10170587  0.00276891  0.41751591    -0.05400
C1670       C  0.13384245  0.53466956  0.41491509    -0.32800
C1671       C  0.16619270  0.53517379  0.41436969     0.36400
C1672       C  0.16700215  0.00331629  0.41647036    -0.05700
C1673       C  0.13485505  0.97144449  0.41897510    -0.32700
C1674       C  0.10253560  0.97091537  0.41941671     0.36300
H1675       H  0.13402301  0.55947199  0.41314596     0.16700
O1676       O  0.19667873  0.56692778  0.41127437    -0.60200
H1677       H  0.13459983  0.94659804  0.42068423     0.16700
O1678       O  0.07203306  0.93905611  0.42217766    -0.60300
H1679       H  0.06550165  0.92843986  0.40831326     0.43700
H1680       H  0.20375349  0.57772815  0.42506684     0.43700
C1681       C  0.24499497  0.74825432  0.18757994    -0.05400
C1682       C  0.21257445  0.72739116  0.17747789    -0.32800
C1683       C  0.21083937  0.72559539  0.15605479     0.36400
C1684       C  0.24193929  0.74486094  0.14426411    -0.05700
C1685       C  0.27430912  0.76536413  0.15440691    -0.32700
C1686       C  0.27608392  0.76705648  0.17573688     0.36300
H1687       H  0.18832816  0.71226212  0.18618135     0.16700
O1688       O  0.17874715  0.70435349  0.14692118    -0.60200
H1689       H  0.29865299  0.78055128  0.14579787     0.16700
O1690       O  0.30837756  0.78795012  0.18473182    -0.60300
H1691       H  0.31941087  0.77285825  0.18556739     0.43700
H1692       H  0.16703435  0.71884364  0.14640084     0.43700
C1693       C  0.24811998  0.75202289  0.31097611    -0.05400
C1694       C  0.27623094  0.77961991  0.32170274    -0.32800
C1695       C  0.27695496  0.77971025  0.34316500     0.36400
C1696       C  0.24936898  0.75174539  0.35433340    -0.05700
C1697       C  0.22160809  0.72382952  0.34357859    -0.32700
C1698       C  0.22066974  0.72392966  0.32213292     0.36300
H1699       H  0.29766504  0.80136850  0.31343026     0.16700
O1700       O  0.30508099  0.80700988  0.35302769    -0.60200
H1701       H  0.20030348  0.70191853  0.35182556     0.16700
O1702       O  0.19357460  0.69564737  0.31222905    -0.60300
H1703       H  0.17357834  0.70040148  0.31233148     0.43700
H1704       H  0.32250044  0.79892279  0.35485203     0.43700
C1705       C  0.24943918  0.91040786  0.24884731    -0.05400
C1706       C  0.21702283  0.87872278  0.24647430    -0.32800
C1707       C  0.21546570  0.84585690  0.24622997     0.36400
C1708       C  0.24672060  0.84407991  0.24847441    -0.05700
C1709       C  0.27910478  0.87579181  0.25074847    -0.32700
C1710       C  0.28064865  0.90858105  0.25108434     0.36300
H1711       H  0.19261982  0.87928955  0.24471427     0.16700
O1712       O  0.18316638  0.81575630  0.24392881    -0.60200
H1713       H  0.30354714  0.87532227  0.25255915     0.16700
O1714       O  0.31292092  0.93858217  0.25371404    -0.60300
H1715       H  0.31593863  0.94175353  0.26876289     0.43700
H1716       H  0.17968875  0.81234246  0.22891705     0.43700
C1717       C  0.24866444  0.66005157  0.24979862    -0.05400
C1718       C  0.28130140  0.66089986  0.25079701    -0.32800
C1719       C  0.28288756  0.62959610  0.25099818     0.36400
C1720       C  0.25142021  0.59640771  0.25006061    -0.05700
C1721       C  0.21884572  0.59563114  0.24911738    -0.32700
C1722       C  0.21725656  0.62685887  0.24884779     0.36300
H1723       H  0.30587915  0.68596420  0.25149589     0.16700
O1724       O  0.31541555  0.63196106  0.25196500    -0.60200
H1725       H  0.19422682  0.57061751  0.24837712     0.16700
O1726       O  0.18469438  0.62438268  0.24771746    -0.60300
H1727       H  0.17955291  0.62333585  0.23286334     0.43700
H1728       H  0.32063857  0.63278746  0.26679465     0.43700
C1729       C  0.24671247  0.99962731  0.18776801    -0.05400
C1730       C  0.21408795  0.98737879  0.17782479    -0.32800
C1731       C  0.21166436  0.98504636  0.15642767     0.36400
C1732       C  0.24228396  0.99524831  0.14443019    -0.05700
C1733       C  0.27472091  0.50665619  0.15442088    -0.32700
C1734       C  0.27708245  0.50860213  0.17577692     0.36300
H1735       H  0.19022157  0.97975578  0.18663360     0.16700
O1736       O  0.17918372  0.97277279  0.14750610    -0.60200
H1737       H  0.29859821  0.51408405  0.14566370     0.16700
O1738       O  0.30933053  0.51932185  0.18466121    -0.60300
H1739       H  0.31029123  0.49727638  0.18674880     0.43700
H1740       H  0.17648320  0.99392482  0.14591355     0.43700
C1741       C  0.25666675  0.00214504  0.35426929    -0.05400
C1742       C  0.28487680  0.52935637  0.34328707    -0.32800
C1743       C  0.28434054  0.53031254  0.32187510     0.36400
C1744       C  0.25503856  0.00393356  0.31105600    -0.05700
C1745       C  0.22662381  0.97696875  0.32208590    -0.32700
C1746       C  0.22738563  0.97575518  0.34348398     0.36300
H1747       H  0.30758903  0.54987659  0.35132823     0.16700
O1748       O  0.31243588  0.55742254  0.31174198    -0.60200
H1749       H  0.20378486  0.95651726  0.31409951     0.16700
O1750       O  0.19866961  0.94957678  0.35372931    -0.60300
H1751       H  0.20203005  0.92868934  0.35345467     0.43700
H1752       H  0.30571010  0.57585357  0.30977521     0.43700
C1753       C  0.00114670  0.74900201  0.18809319    -0.05400
C1754       C  0.46945583  0.73830856  0.17743662    -0.32800
C1755       C  0.46845503  0.73682128  0.15603263     0.36400
C1756       C  0.99947371  0.74565162  0.14472761    -0.05700
C1757       C  0.03120105  0.75647093  0.15538151    -0.32700
C1758       C  0.03224159  0.75813691  0.17678813     0.36300
H1759       H  0.44521768  0.73130955  0.18569553     0.16700
O1760       O  0.43696424  0.72693155  0.14641231    -0.60200
H1761       H  0.05545217  0.76353822  0.14711885     0.16700
O1762       O  0.06386713  0.76864434  0.18640548    -0.60300
H1763       H  0.06455741  0.74652205  0.18877884     0.43700
H1764       H  0.43674247  0.74931503  0.14411768     0.43700
C1765       C  0.99858924  0.74776361  0.31138027    -0.05400
C1766       C  0.47087104  0.71933002  0.32199392    -0.32800
C1767       C  0.47011596  0.71855505  0.34344256     0.36400
C1768       C  0.99721917  0.74671454  0.35461965    -0.05700
C1769       C  0.02459095  0.77532615  0.34395460    -0.32700
C1770       C  0.02549408  0.77596642  0.32256562     0.36300
H1771       H  0.44989464  0.69745032  0.31364267     0.16700
O1772       O  0.44261211  0.69033083  0.35326366    -0.60200
H1773       H  0.04564387  0.79724945  0.35223374     0.16700
O1774       O  0.05263343  0.80455797  0.31277626    -0.60300
H1775       H  0.04338791  0.82079160  0.30991992     0.43700
H1776       H  0.42491574  0.69780364  0.35600192     0.43700
C1777       C  0.00230423  0.90764417  0.25170151    -0.05400
C1778       C  0.47067491  0.87624940  0.25645785    -0.32800
C1779       C  0.46895978  0.84327558  0.25603436     0.36400
C1780       C  0.99933522  0.84117057  0.25093159    -0.05700
C1781       C  0.03090541  0.87255955  0.24624079    -0.32700
C1782       C  0.03259720  0.90543171  0.24656590     0.36300
H1783       H  0.44704712  0.87714895  0.26058413     0.16700
O1784       O  0.43771728  0.81352287  0.26120363    -0.60200
H1785       H  0.05455242  0.87173710  0.24205934     0.16700
O1786       O  0.06378733  0.93501615  0.24112658    -0.60300
H1787       H  0.07847739  0.94206626  0.25368140     0.43700
H1788       H  0.42354938  0.80631020  0.24844607     0.43700
C1789       C  0.00455408  0.59382895  0.25061374    -0.05400
C1790       C  0.47253461  0.59348593  0.25398532    -0.32800
C1791       C  0.47108743  0.62478478  0.25380234     0.36400
C1792       C  0.00201365  0.65753883  0.24999127    -0.05700
C1793       C  0.03415468  0.65800197  0.24678632    -0.32700
C1794       C  0.03561576  0.62662809  0.24701695     0.36300
H1795       H  0.44830303  0.56879263  0.25694548     0.16700
O1796       O  0.43917080  0.62285138  0.25746086    -0.60200
H1797       H  0.05835526  0.68277783  0.24391951     0.16700
O1798       O  0.06761264  0.62852322  0.24374600    -0.60300
H1799       H  0.06974303  0.62752047  0.22865742     0.43700
H1800       H  0.43822584  0.62556215  0.27250298     0.43700
C1801       C  0.49986013  0.99754008  0.18977448    -0.05400
C1802       C  0.02888439  0.02373859  0.17875895    -0.32800
C1803       C  0.02941330  0.02367879  0.15734975     0.36400
C1804       C  0.50047646  0.99709454  0.14641673    -0.05700
C1805       C  0.47130510  0.47090643  0.15740669    -0.32700
C1806       C  0.47081722  0.47096554  0.17889508     0.36300
H1807       H  0.05129871  0.04469980  0.18677242     0.16700
O1808       O  0.05781360  0.05058970  0.14729512    -0.60200
H1809       H  0.44896876  0.44997011  0.14933295     0.16700
O1810       O  0.44256501  0.44407256  0.18905535    -0.60300
H1811       H  0.42403569  0.45092803  0.18915730     0.43700
H1812       H  0.07633267  0.04371247  0.14729768     0.43700
C1813       C  0.51021523  0.00635262  0.35636570    -0.05400
C1814       C  0.04138971  0.52727467  0.34520346    -0.32800
C1815       C  0.04110401  0.52681910  0.32372508     0.36400
C1816       C  0.50903773  0.00560667  0.31311460    -0.05700
C1817       C  0.47778350  0.98547629  0.32450320    -0.32700
C1818       C  0.47825336  0.98565897  0.34588825     0.36300
H1819       H  0.06616407  0.54334563  0.35315399     0.16700
O1820       O  0.07239617  0.54676156  0.31336499    -0.60200
H1821       H  0.45278399  0.96913267  0.31684596     0.16700
O1822       O  0.44719893  0.96559312  0.35644756    -0.60300
H1823       H  0.43821564  0.98197272  0.35959942     0.43700
H1824       H  0.07492825  0.57057849  0.31198399     0.43700
O1825       O  0.97380901  0.44230676  0.25289390    -0.74300
O1826       O  0.97510044  0.03064779  0.25165969    -0.74400
O1827       O  0.97210077  0.48421929  0.22291308    -0.74400
O1828       O  0.97712995  0.48884292  0.28155671    -0.74500
O1829       O  0.53599836  0.01737321  0.27982496    -0.74400
O1830       O  0.53105030  0.01393201  0.22135791    -0.74400
O1831       O  0.53399907  0.05974348  0.25028359    -0.74400
O1832       O  0.53265277  0.47119159  0.25082914    -0.74400
Ni1833     Ni  0.97243407  0.48548751  0.25232862     1.25400
Ni1834     Ni  0.53550746  0.01655039  0.25051487     1.25400
C1835       C  0.50302406  0.44207581  0.25185388     0.87800
C1836       C  0.50467189  0.05982398  0.25084906     0.87800
C1837       C  0.00090550  0.49844561  0.21245008     0.87800
C1838       C  0.00739226  0.50394158  0.29040034     0.88000
O1839       O  0.53051900  0.22074988  0.24978763    -0.74300
O1840       O  0.52873796  0.30751981  0.25019942    -0.74400
O1841       O  0.52877428  0.26353427  0.27923575    -0.74400
O1842       O  0.53022083  0.26463605  0.22065458    -0.74500
O1843       O  0.97127949  0.23487073  0.22042007    -0.74400
O1844       O  0.96976240  0.23270727  0.27900179    -0.74400
O1845       O  0.96978152  0.27753879  0.25027259    -0.74400
O1846       O  0.97158941  0.19054714  0.24930212    -0.74400
Ni1847     Ni  0.53164597  0.26520098  0.24996776     1.25400
Ni1848     Ni  0.96849060  0.23285032  0.24970943     1.25400
C1849       C  0.50130180  0.19121823  0.24963336     0.87800
C1850       C  0.49911282  0.30701130  0.25047488     0.87800
C1851       C  0.49906637  0.24796949  0.28877595     0.87800
C1852       C  0.50095301  0.24967080  0.21081932     0.88000
O1853       O  0.72211490  0.03321383  0.25065192    -0.74300
O1854       O  0.72080494  0.44490140  0.24974763    -0.74400
O1855       O  0.72346655  0.48924748  0.27949651    -0.74400
O1856       O  0.71954482  0.48852563  0.22090518    -0.74500
O1857       O  0.77842890  0.01711875  0.21947917    -0.74400
O1858       O  0.78242882  0.01896874  0.27801819    -0.74400
O1859       O  0.77971891  0.47390338  0.24861287    -0.74400
O1860       O  0.78098044  0.06239227  0.24891302    -0.74400
Ni1861     Ni  0.71939955  0.48802295  0.25025627     1.25400
Ni1862     Ni  0.78249392  0.01916902  0.24870036     1.25400
C1863       C  0.75165266  0.06243435  0.24990743     0.87800
C1864       C  0.75008481  0.44476119  0.24908309     0.87800
C1865       C  0.75361189  0.50416572  0.28842890     0.87800
C1866       C  0.74835919  0.50200655  0.21047605     0.88000
O1867       O  0.71664760  0.23562926  0.22031352    -0.74300
O1868       O  0.71823457  0.23739265  0.27884241    -0.74400
O1869       O  0.71706253  0.28046412  0.24920208    -0.74400
O1870       O  0.71830916  0.19321403  0.24984117    -0.74500
O1871       O  0.77723030  0.22327070  0.24944633    -0.74400
O1872       O  0.77599017  0.31026442  0.24844168    -0.74400
O1873       O  0.77722671  0.26792708  0.27836077    -0.74400
O1874       O  0.77557146  0.26538552  0.21967197    -0.74400
Ni1875     Ni  0.71547140  0.23565782  0.24958572     1.25400
Ni1876     Ni  0.77860354  0.26781688  0.24895752     1.25400
C1877       C  0.74584641  0.24991749  0.21028005     0.87800
C1878       C  0.74786878  0.25254780  0.28829361     0.87800
C1879       C  0.74643433  0.30988128  0.24866132     0.87800
C1880       C  0.74797285  0.19377431  0.24969172     0.88000
O1881       O  0.99556620  0.47559766  0.38806356    -0.74300
O1882       O  0.99316979  0.47234173  0.44666908    -0.74400
O1883       O  0.95086596  0.47393634  0.41718475    -0.74400
O1884       O  0.53838724  0.47385376  0.41739745    -0.74500
O1885       O  0.56831397  0.03277795  0.41855466    -0.74400
O1886       O  0.98047691  0.03288984  0.41779129    -0.74400
O1887       O  0.52271385  0.03132827  0.44754093    -0.74400
O1888       O  0.52625677  0.03468982  0.38889077    -0.74400
Ni1889     Ni  0.99355790  0.47186157  0.41730116     1.25400
Ni1890     Ni  0.52553114  0.03504884  0.41825475     1.25400
C1891       C  0.01094622  0.50558743  0.37886588     0.87800
C1892       C  0.50694708  0.50136545  0.45680588     0.87800
C1893       C  0.95111481  0.50342576  0.41737883     0.87800
C1894       C  0.56782842  0.50313962  0.41789768     0.88000
O1895       O  0.96961673  0.27783236  0.41634173    -0.74300
O1896       O  0.55729981  0.27776729  0.41551150    -0.74400
O1897       O  0.51265120  0.27680980  0.38664029    -0.74400
O1898       O  0.51443117  0.27866607  0.44524757    -0.74500
O1899       O  0.98511246  0.21971597  0.44584017    -0.74400
O1900       O  0.98287765  0.21776873  0.38722482    -0.74400
O1901       O  0.52800922  0.21876701  0.41616079    -0.74400
O1902       O  0.94015771  0.21889566  0.41703438    -0.74400
Ni1903     Ni  0.51452316  0.27984845  0.41590271     1.25400
Ni1904     Ni  0.98297942  0.21667737  0.41657679     1.25400
C1905       C  0.94029768  0.24837042  0.41683557     0.87800
C1906       C  0.55723314  0.24835950  0.41579809     0.87800
C1907       C  0.49744267  0.24702352  0.37725856     0.87800
C1908       C  0.50020226  0.24946742  0.45527559     0.88000
O1909       O  0.78707557  0.47127459  0.41530775    -0.74300
O1910       O  0.69993910  0.47284638  0.41619186    -0.74400
O1911       O  0.74284128  0.47228590  0.38645320    -0.74400
O1912       O  0.74361427  0.47134848  0.44500353    -0.74500
O1913       O  0.77343586  0.03029626  0.44520642    -0.74400
O1914       O  0.77381611  0.03132332  0.38657707    -0.74400
O1915       O  0.73032633  0.03179774  0.41606923    -0.74400
O1916       O  0.81710626  0.03021995  0.41578294    -0.74400
Ni1917     Ni  0.74232857  0.46982490  0.41571547     1.25400
Ni1918     Ni  0.77476291  0.03299026  0.41591164     1.25400
C1919       C  0.81658336  0.50058508  0.41560519     0.87800
C1920       C  0.70074000  0.50266873  0.41620100     0.87800
C1921       C  0.75787277  0.50189308  0.37686033     0.87800
C1922       C  0.75838909  0.50068407  0.45483350     0.88000
O1923       O  0.76421935  0.28030539  0.38703518    -0.74300
O1924       O  0.76341609  0.27834310  0.44575477    -0.74400
O1925       O  0.80795464  0.27992488  0.41628067    -0.74400
O1926       O  0.71947715  0.27866061  0.41661937    -0.74500
O1927       O  0.69053421  0.21964513  0.41663442    -0.74400
O1928       O  0.77896469  0.22100547  0.41527446    -0.74400
O1929       O  0.73514185  0.21942083  0.44516919    -0.74400
O1930       O  0.73426523  0.22128212  0.38646905    -0.74400
Ni1931     Ni  0.76477073  0.28140966  0.41642484     1.25400
Ni1932     Ni  0.73371797  0.21825487  0.41583310     1.25400
C1933       C  0.74933587  0.25111134  0.37704512     0.87800
C1934       C  0.74930462  0.24855146  0.45520866     0.87800
C1935       C  0.80812382  0.25062383  0.41590032     0.87800
C1936       C  0.69038107  0.24894493  0.41688688     0.88000
O1937       O  0.97189678  0.02530583  0.08454307    -0.74300
O1938       O  0.97092234  0.43714933  0.08467521    -0.74400
O1939       O  0.97105438  0.48107756  0.11405292    -0.74400
O1940       O  0.97182726  0.48147361  0.05533504    -0.74500
O1941       O  0.53083880  0.00927819  0.05538529    -0.74400
O1942       O  0.53003677  0.01111222  0.11397448    -0.74400
O1943       O  0.52983374  0.46604408  0.08529252    -0.74400
O1944       O  0.53081890  0.05432192  0.08394881    -0.74400
Ni1945     Ni  0.96932638  0.48019868  0.08466882     1.25400
Ni1946     Ni  0.53248291  0.01121778  0.08468125     1.25400
C1947       C  0.00149882  0.05445414  0.08394120     0.87800
C1948       C  0.00016744  0.43693131  0.08494335     0.87800
C1949       C  0.00051314  0.49638941  0.12371685     0.87800
C1950       C  0.00144892  0.49544278  0.04570013     0.88000
O1951       O  0.53007155  0.30399196  0.08353160    -0.74300
O1952       O  0.52913397  0.21586093  0.08258555    -0.74400
O1953       O  0.53002717  0.26094132  0.05376377    -0.74400
O1954       O  0.52917007  0.25918529  0.11234763    -0.74500
O1955       O  0.97023137  0.22996001  0.11220650    -0.74400
O1956       O  0.97108258  0.23239277  0.05356252    -0.74400
O1957       O  0.97022405  0.18683520  0.08222011    -0.74400
O1958       O  0.97114788  0.27508381  0.08357878    -0.74400
Ni1959     Ni  0.53167688  0.26096576  0.08305632     1.25400
Ni1960     Ni  0.96855855  0.22995974  0.08288349     1.25400
C1961       C  0.50081649  0.30419455  0.08373627     0.87800
C1962       C  0.49953919  0.18669457  0.08228207     0.87800
C1963       C  0.50075836  0.24735936  0.04395704     0.87800
C1964       C  0.49955441  0.24473441  0.12199903     0.88000
O1965       O  0.77088534  0.01001130  0.11182298    -0.74300
O1966       O  0.77154052  0.01034492  0.05338945    -0.74400
O1967       O  0.77089927  0.05414150  0.08253918    -0.74400
O1968       O  0.77089521  0.46620724  0.08250807    -0.74500
O1969       O  0.71196928  0.43688701  0.08231869    -0.74400
O1970       O  0.71195203  0.02452794  0.08282924    -0.74400
O1971       O  0.71252340  0.48145386  0.05320495    -0.74400
O1972       O  0.71194985  0.48030854  0.11205272    -0.74400
Ni1973     Ni  0.77313149  0.01124573  0.08259289     1.25400
Ni1974     Ni  0.70998423  0.47973540  0.08261547     1.25400
C1975       C  0.74149051  0.49503695  0.12167226     0.87800
C1976       C  0.74224940  0.49600439  0.04362495     0.87800
C1977       C  0.74133477  0.05385062  0.08254788     0.87800
C1978       C  0.74134940  0.43693591  0.08229560     0.88000
O1979       O  0.77290519  0.30486074  0.08314176    -0.74300
O1980       O  0.77250189  0.21683948  0.08253773    -0.74400
O1981       O  0.77443943  0.26192508  0.05380347    -0.74400
O1982       O  0.77146353  0.25980384  0.11205503    -0.74500
O1983       O  0.71252673  0.22998219  0.11165249    -0.74400
O1984       O  0.71537453  0.23374037  0.05298007    -0.74400
O1985       O  0.71356783  0.18768688  0.08147756    -0.74400
O1986       O  0.71397115  0.27561374  0.08294622    -0.74400
Ni1987     Ni  0.77489423  0.26189821  0.08294918     1.25400
Ni1988     Ni  0.71171805  0.23066637  0.08225404     1.25400
C1989       C  0.74350562  0.30484311  0.08296276     0.87800
C1990       C  0.74295626  0.18768928  0.08166083     0.87800
C1991       C  0.74544385  0.24834405  0.04381314     0.87800
C1992       C  0.74175308  0.24463178  0.12156062     0.88000
O1993       O  0.99070174  0.01592983  0.88919691    -0.74300
O1994       O  0.98899933  0.01244867  0.94776884    -0.74400
O1995       O  0.53347339  0.05817084  0.91918554    -0.74400
O1996       O  0.94613585  0.47032922  0.91766996    -0.74500
O1997       O  0.97570577  0.44095410  0.91692275    -0.74400
O1998       O  0.56333578  0.02910073  0.91853705    -0.74400
O1999       O  0.51886145  0.48332431  0.94705936    -0.74400
O2000       O  0.52073997  0.48697581  0.88842900    -0.74400
Ni2001     Ni  0.98878088  0.01524110  0.91849244     1.25400
Ni2002     Ni  0.52069586  0.48400118  0.91772143     1.25400
C2003       C  0.50611110  0.50217139  0.87912726     0.87800
C2004       C  0.50385386  0.49750054  0.95711230     0.87800
C2005       C  0.56289371  0.05826875  0.91899530     0.87800
C2006       C  0.94635492  0.44107292  0.91702470     0.88000
O2007       O  0.52880855  0.31153943  0.91677816    -0.74300
O2008       O  0.94153635  0.22295139  0.91654383    -0.74400
O2009       O  0.98472550  0.26650198  0.94601868    -0.74400
O2010       O  0.98501601  0.26786267  0.88742574    -0.74500
O2011       O  0.51480513  0.23865792  0.88689145    -0.74400
O2012       O  0.51585830  0.23859921  0.94553808    -0.74400
O2013       O  0.97183095  0.19431254  0.91643167    -0.74400
O2014       O  0.55873267  0.28252222  0.91593396    -0.74400
Ni2015     Ni  0.98397385  0.26828451  0.91672089     1.25400
Ni2016     Ni  0.51635416  0.23748910  0.91619330     1.25400
C2017       C  0.55826872  0.31165282  0.91621196     0.87800
C2018       C  0.94227391  0.19390668  0.91646219     0.87800
C2019       C  0.50022272  0.25230978  0.95542826     0.87800
C2020       C  0.49972415  0.25330801  0.87746686     0.88000
O2021       O  0.72228844  0.44319247  0.91561551    -0.74300
O2022       O  0.80982360  0.03144757  0.91651552    -0.74400
O2023       O  0.76523827  0.48634629  0.94540145    -0.74400
O2024       O  0.76712757  0.48816985  0.88675391    -0.74500
O2025       O  0.73774986  0.01771873  0.88677545    -0.74400
O2026       O  0.73463259  0.01474260  0.94544324    -0.74400
O2027       O  0.77978234  0.06033237  0.91689427    -0.74400
O2028       O  0.69260050  0.47244383  0.91532567    -0.74400
Ni2029     Ni  0.76719289  0.48624760  0.91607242     1.25400
Ni2030     Ni  0.73516999  0.01736187  0.91611684     1.25400
C2031       C  0.69290538  0.44322490  0.91539844     0.87800
C2032       C  0.80925422  0.06057733  0.91672376     0.87800
C2033       C  0.74935790  0.49997075  0.95510779     0.87800
C2034       C  0.75287641  0.50331741  0.87701812     0.88000
O2035       O  0.81095339  0.28064777  0.91632362    -0.74300
O2036       O  0.72312417  0.19326765  0.91699064    -0.74400
O2037       O  0.76667335  0.23677468  0.88729872    -0.74400
O2038       O  0.76717222  0.23719101  0.94590215    -0.74500
O2039       O  0.73769336  0.26668170  0.94596197    -0.74400
O2040       O  0.73755321  0.26658964  0.88747366    -0.74400
O2041       O  0.69369087  0.22277195  0.91700951    -0.74400
O2042       O  0.78186830  0.31051158  0.91650733    -0.74400
Ni2043     Ni  0.76802648  0.23593439  0.91661099     1.25400
Ni2044     Ni  0.73667782  0.26772531  0.91673272     1.25400
C2045       C  0.81105330  0.31007941  0.91627837     0.87800
C2046       C  0.69384642  0.19344679  0.91727773     0.87800
C2047       C  0.75210407  0.25173388  0.87766091     0.87800
C2048       C  0.75218820  0.25171701  0.95562620     0.88000
O2049       O  0.96932977  0.03094827  0.58479482    -0.74300
O2050       O  0.55687329  0.03048068  0.58435587    -0.74400
O2051       O  0.51314541  0.03063117  0.55530279    -0.74400
O2052       O  0.51333791  0.03097649  0.61389417    -0.74500
O2053       O  0.98430120  0.47200223  0.61411696    -0.74400
O2054       O  0.98287122  0.47165029  0.55527276    -0.74400
O2055       O  0.52722213  0.47150992  0.58408580    -0.74400
O2056       O  0.93966427  0.47200159  0.58528096    -0.74400
Ni2057     Ni  0.51417485  0.03282452  0.58458612     1.25400
Ni2058     Ni  0.98240497  0.46967342  0.58470493     1.25400
C2059       C  0.93995646  0.50155831  0.58516208     0.87800
C2060       C  0.55658093  0.50094498  0.58401780     0.87800
C2061       C  0.49851621  0.50120306  0.54556329     0.87800
C2062       C  0.49899395  0.50161337  0.62374086     0.88000
O2063       O  0.96848932  0.27752804  0.58311804    -0.74300
O2064       O  0.55573793  0.27660454  0.58367275    -0.74400
O2065       O  0.51295063  0.27721088  0.55401391    -0.74400
O2066       O  0.51134481  0.27704469  0.61265420    -0.74500
O2067       O  0.98252669  0.21796806  0.61269518    -0.74400
O2068       O  0.98281117  0.21826421  0.55404411    -0.74400
O2069       O  0.52620172  0.21763536  0.58336956    -0.74400
O2070       O  0.93881797  0.21856886  0.58356384    -0.74400
Ni2071     Ni  0.51319104  0.27918360  0.58334983     1.25400
Ni2072     Ni  0.98147057  0.21600175  0.58339139     1.25400
C2073       C  0.93912288  0.24813382  0.58356357     0.87800
C2074       C  0.55551478  0.24709475  0.58356996     0.87800
C2075       C  0.49830737  0.24774432  0.54428651     0.87800
C2076       C  0.49691782  0.24749712  0.62232463     0.88000
O2077       O  0.71769537  0.02806583  0.58138758    -0.74300
O2078       O  0.80559511  0.02845361  0.58331126    -0.74400
O2079       O  0.76302898  0.02731765  0.55306762    -0.74400
O2080       O  0.76043312  0.02924219  0.61158330    -0.74500
O2081       O  0.73142224  0.47018601  0.61205598    -0.74400
O2082       O  0.73366751  0.46836164  0.55349861    -0.74400
O2083       O  0.77629739  0.46949318  0.58376242    -0.74400
O2084       O  0.68833543  0.46908913  0.58193147    -0.74400
Ni2085     Ni  0.76267983  0.03036196  0.58228570     1.25400
Ni2086     Ni  0.73131483  0.46718089  0.58282115     1.25400
C2087       C  0.68843453  0.49853512  0.58154957     0.87800
C2088       C  0.80552617  0.49902312  0.58392097     0.87800
C2089       C  0.74930094  0.49764137  0.54357982     0.87800
C2090       C  0.74593252  0.49992501  0.62147732     0.88000
O2091       O  0.77810379  0.22033107  0.58371349    -0.74300
O2092       O  0.68890479  0.21730051  0.58327490    -0.74400
O2093       O  0.73424356  0.21897420  0.55400198    -0.74400
O2094       O  0.73319325  0.21898131  0.61272378    -0.74500
O2095       O  0.76052089  0.27800717  0.61264750    -0.74400
O2096       O  0.76287458  0.27790773  0.55410576    -0.74400
O2097       O  0.71707764  0.27625772  0.58283396    -0.74400
O2098       O  0.80636867  0.27928477  0.58401276    -0.74400
Ni2099     Ni  0.73259407  0.21679221  0.58340673     1.25400
Ni2100     Ni  0.76269758  0.27995209  0.58337726     1.25400
C2101       C  0.80698742  0.25019037  0.58407638     0.87800
C2102       C  0.68821461  0.24632944  0.58314774     0.87800
C2103       C  0.74900155  0.24856358  0.54430526     0.87800
C2104       C  0.74673380  0.24852117  0.62233602     0.88000
O2105       O  0.51657691  0.48801062  0.78055999    -0.74300
O2106       O  0.51288280  0.48523010  0.72201286    -0.74400
O2107       O  0.55886005  0.03034045  0.75016715    -0.74400
O2108       O  0.97038674  0.44320444  0.75235229    -0.74500
O2109       O  0.94153117  0.47328532  0.75205534    -0.74400
O2110       O  0.52985047  0.06024471  0.75122286    -0.74400
O2111       O  0.98529988  0.01666959  0.72227322    -0.74400
O2112       O  0.98658176  0.01700631  0.78101715    -0.74400
Ni2113     Ni  0.51568703  0.48561191  0.75127094     1.25400
Ni2114     Ni  0.98476303  0.01785391  0.75166987     1.25400
C2115       C  0.50208808  0.00282560  0.79048703     0.87800
C2116       C  0.49879733  0.50071530  0.71248303     0.87800
C2117       C  0.55896210  0.05981050  0.75043219     0.87800
C2118       C  0.94127140  0.44378200  0.75228585     0.88000
O2119       O  0.55608088  0.27926278  0.74911516    -0.74300
O2120       O  0.96835246  0.19146465  0.75046943    -0.74400
O2121       O  0.51137411  0.23441729  0.72048535    -0.74400
O2122       O  0.51316223  0.23642590  0.77908749    -0.74500
O2123       O  0.98323195  0.26549354  0.77916799    -0.74400
O2124       O  0.98259118  0.26462318  0.72058799    -0.74400
O2125       O  0.93909499  0.22113942  0.75024563    -0.74400
O2126       O  0.52675845  0.30887953  0.74948228    -0.74400
Ni2127     Ni  0.51328315  0.23432555  0.74979331     1.25400
Ni2128     Ni  0.98185252  0.26605507  0.74987424     1.25400
C2129       C  0.55600869  0.30861935  0.74914202     0.87800
C2130       C  0.93911885  0.19176935  0.75048388     0.87800
C2131       C  0.49688895  0.24944258  0.71084205     0.87800
C2132       C  0.49863756  0.25141838  0.78881373     0.88000
O2133       O  0.71730668  0.44211742  0.74892503    -0.74300
O2134       O  0.80585559  0.02881865  0.74856060    -0.74400
O2135       O  0.76216353  0.48569430  0.77811667    -0.74400
O2136       O  0.76098125  0.48557796  0.71941280    -0.74500
O2137       O  0.73300950  0.01660335  0.71986994    -0.74400
O2138       O  0.73317460  0.01562641  0.77843778    -0.74400
O2139       O  0.77734374  0.05922964  0.74926612    -0.74400
O2140       O  0.68858878  0.47233198  0.74903664    -0.74400
Ni2141     Ni  0.76255092  0.48443059  0.74873227     1.25400
Ni2142     Ni  0.73196170  0.01697487  0.74916782     1.25400
C2143       C  0.68825994  0.44276035  0.74886526     0.87800
C2144       C  0.80632283  0.05840548  0.74907756     0.87800
C2145       C  0.74827662  0.00118659  0.78801603     0.87800
C2146       C  0.74703823  0.00133590  0.70996430     0.88000
O2147       O  0.72250373  0.19202883  0.74929692    -0.74300
O2148       O  0.80959073  0.28036390  0.74942766    -0.74400
O2149       O  0.76645770  0.23556837  0.77867879    -0.74400
O2150       O  0.76539063  0.23676966  0.72003584    -0.74500
O2151       O  0.73585957  0.26622979  0.72089919    -0.74400
O2152       O  0.73638241  0.26442049  0.77940225    -0.74400
O2153       O  0.77978950  0.30948094  0.75038466    -0.74400
O2154       O  0.69261872  0.22107650  0.74996944    -0.74400
Ni2155     Ni  0.76708442  0.23517798  0.74931706     1.25400
Ni2156     Ni  0.73509691  0.26632321  0.75018648     1.25400
C2157       C  0.69308682  0.19190154  0.74952907     0.87800
C2158       C  0.80920796  0.30954014  0.75017267     0.87800
C2159       C  0.75162566  0.24989994  0.78876522     0.87800
C2160       C  0.75023772  0.25151458  0.71078620     0.88000
C2161       C  0.84060813  0.09217045  0.74963950    -0.05400
C2162       C  0.84055652  0.12431474  0.75087900    -0.32800
C2163       C  0.87217482  0.15675002  0.75134045     0.36400
C2164       C  0.90502166  0.15773669  0.75057248    -0.05700
C2165       C  0.90512386  0.12555927  0.74958700    -0.32700
C2166       C  0.87343889  0.09305988  0.74922049     0.36300
H2167       H  0.81582623  0.12450935  0.75148967     0.16700
O2168       O  0.87043929  0.18723235  0.75286830    -0.60200
H2169       H  0.92989301  0.12543554  0.74901995     0.16700
O2170       O  0.87508139  0.06248042  0.74814364    -0.60300
H2171       H  0.87699054  0.05644350  0.76255451     0.43700
H2172       H  0.86721763  0.19302158  0.73863284     0.43700
C2173       C  0.65413063  0.40871940  0.74862187    -0.05400
C2174       C  0.65443818  0.37667658  0.74992617    -0.32800
C2175       C  0.62296495  0.34404810  0.75008811     0.36400
C2176       C  0.59002318  0.34274394  0.74880971    -0.05700
C2177       C  0.58969116  0.37476032  0.74729275    -0.32700
C2178       C  0.62121862  0.40742339  0.74707401     0.36300
H2179       H  0.67924881  0.37673366  0.75099196     0.16700
O2180       O  0.62495006  0.31368377  0.75142700    -0.60200
H2181       H  0.56484812  0.37463315  0.74619590     0.16700
O2182       O  0.61933656  0.43781204  0.74548461    -0.60300
H2183       H  0.61866444  0.44170896  0.73056239     0.43700
H2184       H  0.62554988  0.30947263  0.76631342     0.43700
C2185       C  0.90709331  0.40978985  0.75220904    -0.05400
C2186       C  0.90736095  0.37776661  0.75365580    -0.32800
C2187       C  0.87594399  0.34512980  0.75314112     0.36400
C2188       C  0.84308847  0.34377453  0.75093676    -0.05700
C2189       C  0.84272653  0.37579808  0.74970411    -0.32700
C2190       C  0.87420495  0.40850286  0.75027412     0.36300
H2191       H  0.93211668  0.37783967  0.75521967     0.16700
O2192       O  0.87791531  0.31478893  0.75472401    -0.55400
H2193       H  0.81792317  0.37563404  0.74814096     0.16700
O2194       O  0.87229543  0.43891338  0.74898115    -0.60300
H2195       H  0.87242285  0.44357422  0.73410110     0.43700
H2196       H  0.87675396  0.30988225  0.76962923     0.43700
C2197       C  0.59313352  0.09374377  0.74985673    -0.05400
C2198       C  0.62500388  0.09333526  0.74763538    -0.32800
C2199       C  0.65769180  0.12484481  0.74742791     0.36400
C2200       C  0.65907950  0.15780161  0.74938719    -0.05700
C2201       C  0.62718657  0.15817151  0.75137649    -0.32700
C2202       C  0.59456556  0.12674693  0.75156296     0.36300
H2203       H  0.62474296  0.06845702  0.74608862     0.16700
O2204       O  0.68795736  0.12295376  0.74496621    -0.60200
H2205       H  0.62735157  0.18300135  0.75292570     0.16700
O2206       O  0.56437179  0.12880757  0.75388844    -0.60300
H2207       H  0.55816572  0.13255035  0.73986824     0.43700
H2208       H  0.69401510  0.11866689  0.75890154     0.43700
C2209       C  0.74684478  0.24873523  0.64492375    -0.05400
C2210       C  0.74367289  0.27503698  0.65553929    -0.32800
C2211       C  0.74432234  0.27611529  0.67696763     0.36400
C2212       C  0.74896983  0.25102065  0.68814122    -0.05700
C2213       C  0.75220912  0.22479433  0.67744994    -0.32700
C2214       C  0.75090777  0.22335613  0.65606546     0.36300
H2215       H  0.74033745  0.29465026  0.64719370     0.16700
O2216       O  0.74050068  0.30188035  0.68675405    -0.60200
H2217       H  0.75547395  0.20505762  0.68569579     0.16700
O2218       O  0.75415298  0.19729572  0.64622316    -0.60300
H2219       H  0.77961377  0.20829557  0.64260365     0.43700
H2220       H  0.76496901  0.32154473  0.68911610     0.43700
C2221       C  0.74631955  0.50036092  0.64408235    -0.05400
C2222       C  0.74625112  0.52833702  0.65471562    -0.32800
C2223       C  0.74639045  0.52902921  0.67616118     0.36400
C2224       C  0.74697282  0.50159955  0.68732298    -0.05700
C2225       C  0.74769411  0.97402129  0.67663715    -0.32700
C2226       C  0.74731435  0.97320986  0.65524402     0.36300
H2227       H  0.74572401  0.54956587  0.64638766     0.16700
O2228       O  0.74625360  0.55678504  0.68599884    -0.60200
H2229       H  0.74826379  0.95276109  0.68489828     0.16700
O2230       O  0.74840531  0.94593620  0.64541801    -0.60300
H2231       H  0.77386313  0.95482515  0.64262127     0.43700
H2232       H  0.77155485  0.57441033  0.68830749     0.43700
C2233       C  0.84123768  0.25057333  0.58453626    -0.05400
C2234       C  0.84114801  0.21872352  0.58808460    -0.32800
C2235       C  0.87258109  0.21749713  0.58795147     0.36400
C2236       C  0.90525061  0.24854207  0.58414037    -0.05700
C2237       C  0.90545865  0.28057636  0.58099545    -0.32700
C2238       C  0.87398310  0.28184511  0.58130474     0.36300
H2239       H  0.81651849  0.19441327  0.59103077     0.16700
O2240       O  0.87096388  0.18587433  0.59210413    -0.60200
H2241       H  0.93013619  0.30488183  0.57813958     0.16700
O2242       O  0.87561896  0.31366900  0.57785696    -0.60300
H2243       H  0.88084623  0.32551985  0.59140437     0.43700
H2244       H  0.86507360  0.17303301  0.57886259     0.43700
C2245       C  0.58951774  0.24700810  0.58364787    -0.05400
C2246       C  0.58975496  0.21547077  0.58782878    -0.32800
C2247       C  0.62148133  0.21463401  0.58779122     0.36400
C2248       C  0.65386472  0.24570796  0.58337676    -0.05700
C2249       C  0.65353831  0.27717851  0.57933888    -0.32700
C2250       C  0.62199280  0.27811409  0.57958697     0.36300
H2251       H  0.56528437  0.19132425  0.59133781     0.16700
O2252       O  0.62053214  0.18359779  0.59277922    -0.60200
H2253       H  0.67793504  0.30142939  0.57588772     0.16700
O2254       O  0.62330931  0.30954759  0.57529057    -0.60300
H2255       H  0.62927312  0.32257890  0.58847320     0.43700
H2256       H  0.61399595  0.16959147  0.57993974     0.43700
C2257       C  0.49676525  0.24761683  0.64491055    -0.05400
C2258       C  0.99318949  0.27377437  0.65537481    -0.32800
C2259       C  0.99251188  0.27434382  0.67679613     0.36400
C2260       C  0.49664686  0.24911565  0.68816384    -0.05700
C2261       C  0.50076379  0.22326356  0.67762395    -0.32700
C2262       C  0.50031356  0.22206092  0.65619818     0.36300
H2263       H  0.99035646  0.29358586  0.64690576     0.16700
O2264       O  0.98891820  0.30037751  0.68640633    -0.60200
H2265       H  0.50397743  0.20361142  0.68600245     0.16700
O2266       O  0.50486790  0.19672112  0.64644360    -0.60300
H2267       H  0.48106877  0.17519309  0.64633861     0.43700
H2268       H  0.96308764  0.29160599  0.68659158     0.43700
C2269       C  0.90583125  0.50149929  0.58535506    -0.05400
C2270       C  0.87395750  0.46935164  0.58803879    -0.32800
C2271       C  0.84124436  0.46806923  0.58779247     0.36400
C2272       C  0.83973351  0.49935005  0.58471003    -0.05700
C2273       C  0.87162010  0.03156436  0.58229735    -0.32700
C2274       C  0.90434861  0.03290163  0.58276348     0.36300
H2275       H  0.87423385  0.44489111  0.59039203     0.16700
O2276       O  0.81105768  0.43613525  0.59107746    -0.60200
H2277       H  0.87134390  0.05602792  0.57995363     0.16700
O2278       O  0.93459009  0.06505677  0.58022129    -0.60300
H2279       H  0.94038094  0.07575956  0.59408756     0.43700
H2280       H  0.80510413  0.42417758  0.57755799     0.43700
C2281       C  0.65448941  0.49875667  0.58172382    -0.05400
C2282       C  0.65470027  0.03038590  0.58627454    -0.32800
C2283       C  0.62323143  0.03150951  0.58722361     0.36400
C2284       C  0.59047867  0.50065735  0.58338241    -0.05700
C2285       C  0.59024961  0.46902556  0.57876754    -0.32700
C2286       C  0.62175599  0.46790329  0.57784062     0.36300
H2287       H  0.67938542  0.05443549  0.58945016     0.16700
O2288       O  0.62497951  0.06297741  0.59205504    -0.60200
H2289       H  0.56553308  0.44496857  0.57565880     0.16700
O2290       O  0.62007071  0.43643758  0.57309288    -0.60300
H2291       H  0.62243468  0.43664395  0.55796605     0.43700
H2292       H  0.62291370  0.06281803  0.60719923     0.43700
C2293       C  0.49935573  0.50183569  0.64650814    -0.05400
C2294       C  0.49293859  0.47119749  0.65723418    -0.32800
C2295       C  0.49310800  0.47061670  0.67869387     0.36400
C2296       C  0.49861163  0.50059735  0.68986453    -0.05700
C2297       C  0.00474366  0.03110993  0.67925023    -0.32700
C2298       C  0.00585466  0.03218214  0.65780562     0.36300
H2299       H  0.48808168  0.44761652  0.64898301     0.16700
O2300       O  0.48647217  0.44014030  0.68860211    -0.60200
H2301       H  0.00943393  0.05453516  0.68762955     0.16700
O2302       O  0.01245811  0.06281362  0.64811490    -0.60300
H2303       H  0.03863574  0.07776671  0.64773279     0.43700
H2304       H  0.50951537  0.44075067  0.68881734     0.43700
C2305       C  0.75211012  0.25171222  0.85491905    -0.05400
C2306       C  0.76595694  0.23325875  0.84426291    -0.32800
C2307       C  0.76599792  0.23227965  0.82283549     0.36400
C2308       C  0.75209155  0.25009297  0.81150658    -0.05700
C2309       C  0.73844034  0.26870562  0.82217428    -0.32700
C2310       C  0.73854112  0.26982498  0.84356992     0.36300
H2311       H  0.77672416  0.21926237  0.85253589     0.16700
O2312       O  0.77995851  0.21398422  0.81323141    -0.60200
H2313       H  0.72774284  0.28279605  0.81393122     0.16700
O2314       O  0.72508039  0.28862602  0.85311938    -0.60300
H2315       H  0.74531045  0.31316337  0.85419687     0.43700
H2316       H  0.76009615  0.18923484  0.81227743     0.43700
C2317       C  0.75005381  0.00266564  0.81077815    -0.05400
C2318       C  0.76611389  0.98624237  0.82124361    -0.32800
C2319       C  0.76813534  0.98698403  0.84265701     0.36400
C2320       C  0.75335974  0.50387827  0.85422514    -0.05700
C2321       C  0.73814518  0.52109761  0.84373578    -0.32700
C2322       C  0.73644059  0.52067025  0.82232457     0.36300
H2323       H  0.77723593  0.97263349  0.81283052     0.16700
O2324       O  0.78413586  0.97052130  0.85202420    -0.60200
H2325       H  0.72717249  0.53485970  0.85213494     0.16700
O2326       O  0.72178795  0.53842516  0.81293635    -0.60300
H2327       H  0.69592739  0.52152630  0.81286072     0.43700
H2328       H  0.80960423  0.98872823  0.85266750     0.43700
C2329       C  0.90848997  0.15955636  0.91641605    -0.05400
C2330       C  0.87621583  0.15941788  0.91594596    -0.32800
C2331       C  0.84385408  0.12764647  0.91589326     0.36400
C2332       C  0.84309413  0.09487172  0.91661106    -0.05700
C2333       C  0.87536826  0.09499294  0.91693491    -0.32700
C2334       C  0.90775033  0.12677824  0.91683472     0.36300
H2335       H  0.87588638  0.18409697  0.91551534     0.16700
O2336       O  0.81321436  0.12917782  0.91524266    -0.60200
H2337       H  0.87567633  0.07029976  0.91727482     0.16700
O2338       O  0.93841800  0.12526431  0.91687339    -0.60300
H2339       H  0.94341813  0.12370288  0.93152597     0.43700
H2340       H  0.80856171  0.13016650  0.90046411     0.43700
C2341       C  0.65869883  0.40930790  0.91537282    -0.05400
C2342       C  0.62690701  0.40986002  0.91309755    -0.32800
C2343       C  0.59410785  0.37852306  0.91324039     0.36400
C2344       C  0.59243495  0.34559211  0.91586456    -0.05700
C2345       C  0.62423118  0.34503941  0.91803695    -0.32700
C2346       C  0.65701009  0.37634901  0.91790175     0.36300
H2347       H  0.62731951  0.43473630  0.91110750     0.16700
O2348       O  0.56397086  0.38060126  0.91083001    -0.60200
H2349       H  0.62383978  0.32017698  0.92004795     0.16700
O2350       O  0.68711942  0.37420687  0.92027481    -0.60300
H2351       H  0.69090981  0.37499915  0.93528368     0.43700
H2352       H  0.55991912  0.37925771  0.89583366     0.43700
C2353       C  0.49942945  0.25341011  0.85479180    -0.05400
C2354       C  0.52465772  0.24870697  0.84394920    -0.32800
C2355       C  0.52509062  0.24857532  0.82253123     0.36400
C2356       C  0.49951573  0.25246401  0.81147536    -0.05700
C2357       C  0.97451432  0.25756181  0.82230354    -0.32700
C2358       C  0.97427413  0.25801613  0.84373175     0.36300
H2359       H  0.54455542  0.24562902  0.85209112     0.16700
O2360       O  0.55100161  0.24513137  0.81261440    -0.60200
H2361       H  0.95466294  0.26070541  0.81415259     0.16700
O2362       O  0.94903525  0.26257939  0.85363978    -0.60300
H2363       H  0.92868255  0.23832838  0.85568821     0.43700
H2364       H  0.57073259  0.26971574  0.81053246     0.43700
C2365       C  0.91205901  0.40723088  0.91643096    -0.05400
C2366       C  0.88062640  0.40799564  0.91297902    -0.32800
C2367       C  0.84770459  0.37680289  0.91267016     0.36400
C2368       C  0.84549735  0.34378158  0.91605586    -0.05700
C2369       C  0.87696414  0.34297587  0.91926647    -0.32700
C2370       C  0.90990061  0.37416521  0.91951947     0.36300
H2371       H  0.88144088  0.43294292  0.91039836     0.16700
O2372       O  0.81795834  0.37911109  0.90907267    -0.60200
H2373       H  0.87615154  0.31803079  0.92185089     0.16700
O2374       O  0.93968427  0.37183533  0.92291799    -0.60300
H2375       H  0.94248541  0.37283412  0.93801795     0.43700
H2376       H  0.81489500  0.37725164  0.89398873     0.43700
C2377       C  0.59660280  0.09265908  0.91904264    -0.05400
C2378       C  0.59562354  0.12439842  0.91814491    -0.32800
C2379       C  0.62679588  0.15732661  0.91772882     0.36400
C2380       C  0.66003398  0.15915788  0.91802485    -0.05700
C2381       C  0.66098762  0.12742530  0.91915951    -0.32700
C2382       C  0.62983866  0.09452029  0.91961301     0.36300
H2383       H  0.57053173  0.12386006  0.91765878     0.16700
O2384       O  0.62425501  0.18740343  0.91666972    -0.60200
H2385       H  0.68606246  0.12792931  0.91963701     0.16700
O2386       O  0.63240591  0.06447021  0.92086320    -0.60300
H2387       H  0.63508561  0.05867249  0.90650875     0.43700
H2388       H  0.62164844  0.19304241  0.93107405     0.43700
C2389       C  0.50629180  0.50341939  0.85646186    -0.05400
C2390       C  0.98033481  0.50777482  0.84638482    -0.32800
C2391       C  0.97864637  0.50765747  0.82500518     0.36400
C2392       C  0.50346761  0.50353061  0.81316948    -0.05700
C2393       C  0.52980839  0.99970253  0.82323617    -0.32700
C2394       C  0.53151919  0.99986884  0.84465808     0.36300
H2395       H  0.96062188  0.51047408  0.85510965     0.16700
O2396       O  0.95208770  0.51084601  0.81590656    -0.60200
H2397       H  0.54942495  0.99689297  0.81447668     0.16700
O2398       O  0.55811359  0.99680205  0.85382602    -0.60300
H2399       H  0.57787712  0.02146296  0.85546630     0.43700
H2400       H  0.93218444  0.48622250  0.81438578     0.43700
C2401       C  0.74697155  0.24929373  0.02138222    -0.05400
C2402       C  0.77054410  0.24132301  0.01129039    -0.32800
C2403       C  0.77221503  0.24138256  0.98990926     0.36400
C2404       C  0.75099750  0.25090845  0.97828669    -0.05700
C2405       C  0.72783709  0.25947514  0.98856551    -0.32700
C2406       C  0.72540360  0.25825654  0.00992686     0.36300
H2407       H  0.78722947  0.23429429  0.02002527     0.16700
O2408       O  0.79511039  0.23267126  0.98063465    -0.60200
H2409       H  0.71120313  0.26681551  0.98004870     0.16700
O2410       O  0.70300607  0.26734072  0.01949714    -0.60300
H2411       H  0.67947440  0.24546058  0.01942783     0.43700
H2412       H  0.78194474  0.20642441  0.97982914     0.43700
C2413       C  0.74135588  0.40286842  0.08207489    -0.05400
C2414       C  0.77364974  0.40322079  0.08024116    -0.32800
C2415       C  0.77487156  0.37175996  0.08047490     0.36400
C2416       C  0.74336126  0.33884597  0.08261664    -0.05700
C2417       C  0.71099554  0.33845238  0.08415200    -0.32700
C2418       C  0.70974076  0.36989385  0.08374491     0.36300
H2419       H  0.79828816  0.42804962  0.07859275     0.16700
O2420       O  0.80703658  0.37364236  0.07812115    -0.60200
H2421       H  0.68633184  0.31361448  0.08569130     0.16700
O2422       O  0.67742053  0.36790183  0.08538156    -0.60300
H2423       H  0.66825672  0.36434612  0.07117979     0.43700
H2424       H  0.81737004  0.37816526  0.09205520     0.43700
C2425       C  0.74119153  0.08782666  0.08199510    -0.05400
C2426       C  0.77253685  0.11931608  0.07711543    -0.32800
C2427       C  0.77336635  0.15180511  0.07645764     0.36400
C2428       C  0.74260338  0.15350202  0.08109431    -0.05700
C2429       C  0.71105459  0.12192962  0.08549284    -0.32700
C2430       C  0.71014636  0.08940162  0.08602380     0.36300
H2431       H  0.79658450  0.11882490  0.07358534     0.16700
O2432       O  0.80444147  0.18164251  0.07116320    -0.60200
H2433       H  0.68697042  0.12241141  0.08893127     0.16700
O2434       O  0.67872720  0.05943830  0.09065052    -0.60300
H2435       H  0.67812637  0.05780646  0.10581684     0.43700
H2436       H  0.80331255  0.18367508  0.05608258     0.43700
C2437       C  0.74756089  0.49837152  0.97775610    -0.05400
C2438       C  0.71908848  0.99844296  0.98787937    -0.32800
C2439       C  0.71653087  0.99689151  0.00928436     0.36400
C2440       C  0.74321946  0.49619257  0.02099324    -0.05700
C2441       C  0.77179063  0.49631932  0.01089007    -0.32700
C2442       C  0.77384540  0.49685215  0.98948490     0.36300
H2443       H  0.69850965  0.99942686  0.97916218     0.16700
O2444       O  0.68867651  0.99767849  0.01859196    -0.60200
H2445       H  0.79256258  0.49571237  0.01962108     0.16700
O2446       O  0.80241181  0.49734926  0.98025538    -0.60300
H2447       H  0.79660463  0.47225051  0.97994791     0.43700
H2448       H  0.66901686  0.97275265  0.01856986     0.43700
C2449       C  0.50026921  0.25178627  0.97801637    -0.05400
C2450       C  0.53061559  0.25695790  0.98832636    -0.32800
C2451       C  0.53147872  0.25636739  0.00973788     0.36400
C2452       C  0.50112323  0.24922745  0.02126414    -0.05700
C2453       C  0.97069809  0.24398776  0.01085685    -0.32700
C2454       C  0.97029717  0.24575534  0.98944727     0.36300
H2455       H  0.55398588  0.26191881  0.97973686     0.16700
O2456       O  0.56184203  0.26177390  0.01914648    -0.60200
H2457       H  0.94713006  0.23873185  0.01932213     0.16700
O2458       O  0.93994201  0.23991663  0.97982300    -0.60300
H2459       H  0.94082108  0.26310093  0.98005130     0.43700
H2460       H  0.57703575  0.28787934  0.02015327     0.43700
C2461       C  0.49988321  0.40274422  0.08470857    -0.05400
C2462       C  0.53215952  0.40285115  0.08484482    -0.32800
C2463       C  0.53300204  0.37121232  0.08454404     0.36400
C2464       C  0.50109698  0.33836450  0.08411396    -0.05700
C2465       C  0.96882210  0.33825341  0.08394455    -0.32700
C2466       C  0.96798705  0.36989661  0.08407687     0.36300
H2467       H  0.55708061  0.42761626  0.08513538     0.16700
O2468       O  0.56528442  0.37294047  0.08433018    -0.60200
H2469       H  0.94390425  0.31349006  0.08356440     0.16700
O2470       O  0.93571840  0.36817775  0.08370585    -0.60300
H2471       H  0.92964571  0.36687818  0.06898230     0.43700
H2472       H  0.57209102  0.37447349  0.09893331     0.43700
C2473       C  0.49955097  0.15259834  0.08220211    -0.05400
C2474       C  0.53200158  0.15300625  0.08230556    -0.32800
C2475       C  0.53319539  0.12152879  0.08268921     0.36400
C2476       C  0.50148660  0.08851697  0.08315438    -0.05700
C2477       C  0.96903845  0.08809370  0.08277307    -0.32700
C2478       C  0.96784267  0.11957027  0.08235581     0.36300
H2479       H  0.55680434  0.17789907  0.08216019     0.16700
O2480       O  0.56561631  0.12357638  0.08294800    -0.60200
H2481       H  0.94423821  0.06319734  0.08290450     0.16700
O2482       O  0.93542431  0.11751889  0.08195750    -0.60300
H2483       H  0.92796510  0.11536640  0.09651021     0.43700
H2484       H  0.57268716  0.12520081  0.06834856     0.43700
C2485       C  0.00182044  0.49577107  0.02308982    -0.05400
C2486       C  0.52816401  0.49266631  0.01244552    -0.32800
C2487       C  0.52890016  0.49261836  0.99099474     0.36400
C2488       C  0.50350156  0.49665288  0.97980198    -0.05700
C2489       C  0.97750835  0.00031630  0.99052866    -0.32700
C2490       C  0.97641605  0.99970506  0.01194732     0.36300
H2491       H  0.54803261  0.48981271  0.02078450     0.16700
O2492       O  0.55529453  0.48984761  0.98119076    -0.60200
H2493       H  0.95773837  0.00346828  0.98229196     0.16700
O2494       O  0.95072088  0.00356610  0.02182432    -0.60300
H2495       H  0.96144888  0.02939449  0.02421070     0.43700
H2496       H  0.54676053  0.46406940  0.98059498     0.43700
C2497       C  0.74943576  0.24800582  0.47800073    -0.05400
C2498       C  0.76700090  0.28013271  0.48880169    -0.32800
C2499       C  0.76748903  0.28077201  0.51023267     0.36400
C2500       C  0.74986925  0.24882228  0.52150796    -0.05700
C2501       C  0.73262942  0.21665584  0.51071453    -0.32700
C2502       C  0.73219311  0.21602295  0.48925857     0.36300
H2503       H  0.78058737  0.30511187  0.48063601     0.16700
O2504       O  0.78504402  0.31296481  0.51989600    -0.60200
H2505       H  0.71904642  0.19170080  0.51890293     0.16700
O2506       O  0.71484422  0.18386035  0.47955298    -0.60300
H2507       H  0.69000930  0.17853354  0.47821213     0.43700
H2508       H  0.80974648  0.31796137  0.52140484     0.43700
C2509       C  0.75745677  0.50016779  0.47757625    -0.05400
C2510       C  0.74200144  0.46758268  0.48805894    -0.32800
C2511       C  0.73945507  0.46613349  0.50946921     0.36400
C2512       C  0.75201336  0.49766890  0.52090002    -0.05700
C2513       C  0.76811816  0.03020375  0.51041740    -0.32700
C2514       C  0.77096015  0.03168677  0.48908241     0.36300
H2515       H  0.73169500  0.44294724  0.47966532     0.16700
O2516       O  0.72433906  0.43368695  0.51893250    -0.60200
H2517       H  0.77852464  0.05490385  0.51874968     0.16700
O2518       O  0.78720015  0.06426242  0.47974438    -0.60300
H2519       H  0.76839785  0.07056153  0.47820623     0.43700
H2520       H  0.74399889  0.42873533  0.52088931     0.43700
C2521       C  0.50095347  0.24975368  0.47803905    -0.05400
C2522       C  0.98841110  0.21762566  0.48868714    -0.32800
C2523       C  0.98759272  0.21651077  0.51010858     0.36400
C2524       C  0.49940924  0.24796540  0.52150632    -0.05700
C2525       C  0.51263325  0.28021963  0.51086625    -0.32700
C2526       C  0.51370768  0.28136083  0.48941866     0.36300
H2527       H  0.97906627  0.19300155  0.48040764     0.16700
O2528       O  0.97586148  0.18450499  0.51965658    -0.60200
H2529       H  0.52209297  0.30483732  0.51916900     0.16700
O2530       O  0.52658423  0.31351293  0.47984217    -0.60300
H2531       H  0.55255256  0.32333045  0.47892997     0.43700
H2532       H  0.94970347  0.17335245  0.52011268     0.43700
C2533       C  0.84223605  0.25065027  0.41639775    -0.05400
C2534       C  0.84179910  0.21822384  0.41748852    -0.32800
C2535       C  0.87324002  0.21698616  0.41787870     0.36400
C2536       C  0.90630097  0.24862156  0.41704332    -0.05700
C2537       C  0.90676674  0.28110614  0.41625902    -0.32700
C2538       C  0.87529302  0.28235359  0.41612912     0.36300
H2539       H  0.81689797  0.19345775  0.41810753     0.16700
O2540       O  0.87112940  0.18460500  0.41944636    -0.60200
H2541       H  0.93168536  0.30586627  0.41575726     0.16700
O2542       O  0.87737003  0.31479455  0.41548118    -0.60300
H2543       H  0.87930078  0.32231660  0.42999104     0.43700
H2544       H  0.86772734  0.17545713  0.40522918     0.43700
C2545       C  0.65623460  0.24860496  0.41715699    -0.05400
C2546       C  0.65502206  0.27833521  0.40999844    -0.32800
C2547       C  0.62306647  0.27849839  0.40928912     0.36400
C2548       C  0.59136780  0.24864118  0.41599732    -0.05700
C2549       C  0.59260720  0.21899826  0.42336868    -0.32700
C2550       C  0.62466020  0.21892288  0.42417234     0.36300
H2551       H  0.67888765  0.30143798  0.40452716     0.16700
O2552       O  0.62320356  0.30793481  0.40175718    -0.60200
H2553       H  0.56873157  0.19595732  0.42888830     0.16700
O2554       O  0.62479149  0.18986094  0.43211684    -0.60300
H2555       H  0.63030527  0.19524338  0.44686036     0.43700
H2556       H  0.61825254  0.30330213  0.38691508     0.43700
C2557       C  0.50448835  0.50059789  0.47949801    -0.05400
C2558       C  0.52820903  0.03068250  0.49067275    -0.32800
C2559       C  0.52644613  0.03126305  0.51204995     0.36400
C2560       C  0.50038606  0.50142220  0.52283396    -0.05700
C2561       C  0.97656866  0.47128332  0.51167025    -0.32700
C2562       C  0.97827748  0.47077335  0.49022319     0.36300
H2563       H  0.54859527  0.05390531  0.48282835     0.16700
O2564       O  0.55074106  0.06112889  0.52219940    -0.60200
H2565       H  0.95622052  0.44810262  0.51956236     0.16700
O2566       O  0.95382227  0.44114660  0.47995548    -0.60300
H2567       H  0.93424230  0.44567413  0.47667791     0.43700
H2568       H  0.57067662  0.05707009  0.52531328     0.43700
C2569       C  0.91688731  0.50307979  0.41704594    -0.05400
C2570       C  0.88500225  0.47052450  0.41587635    -0.32800
C2571       C  0.85224318  0.46912133  0.41531336     0.36400
C2572       C  0.85071368  0.50069826  0.41594229    -0.05700
C2573       C  0.88260452  0.03321799  0.41717514    -0.32700
C2574       C  0.91531637  0.03461106  0.41785594     0.36300
H2575       H  0.88529231  0.44582834  0.41535157     0.16700
O2576       O  0.82198914  0.43663552  0.41442845    -0.60200
H2577       H  0.88236149  0.05793320  0.41776250     0.16700
O2578       O  0.94550230  0.06708390  0.41917649    -0.60300
H2579       H  0.94952005  0.07196726  0.43406293     0.43700
H2580       H  0.81810744  0.43077871  0.39963764     0.43700
C2581       C  0.60170600  0.50276850  0.41751576    -0.05400
C2582       C  0.63384208  0.03466918  0.41491450    -0.32800
C2583       C  0.66619236  0.03517346  0.41436907     0.36400
C2584       C  0.66700236  0.50331607  0.41647018    -0.05700
C2585       C  0.63485532  0.47144430  0.41897511    -0.32700
C2586       C  0.60253583  0.47091508  0.41941672     0.36300
H2587       H  0.63402263  0.05947160  0.41314530     0.16700
O2588       O  0.69667834  0.06692741  0.41127358    -0.60200
H2589       H  0.63460014  0.44659789  0.42068438     0.16700
O2590       O  0.57203336  0.43905582  0.42217781    -0.60300
H2591       H  0.56550192  0.42843934  0.40831346     0.43700
H2592       H  0.70375311  0.07772804  0.42506599     0.43700
C2593       C  0.74499563  0.24825497  0.18758016    -0.05400
C2594       C  0.71257531  0.22739109  0.17747810    -0.32800
C2595       C  0.71084029  0.22559534  0.15605501     0.36400
C2596       C  0.74194006  0.24486160  0.14426434    -0.05700
C2597       C  0.77430969  0.26536555  0.15440716    -0.32700
C2598       C  0.77608446  0.26705793  0.17573712     0.36300
H2599       H  0.68832912  0.21226134  0.18618155     0.16700
O2600       O  0.67874827  0.20435268  0.14692142    -0.60200
H2601       H  0.79865348  0.28055334  0.14579810     0.16700
O2602       O  0.80837792  0.28795227  0.18473205    -0.60300
H2603       H  0.81941196  0.27286105  0.18556752     0.43700
H2604       H  0.66703483  0.21884221  0.14640099     0.43700
C2605       C  0.74811998  0.25202271  0.31097628    -0.05400
C2606       C  0.77623088  0.27961969  0.32170297    -0.32800
C2607       C  0.77695488  0.27970974  0.34316522     0.36400
C2608       C  0.74936888  0.25174474  0.35433354    -0.05700
C2609       C  0.72160808  0.22382890  0.34357867    -0.32700
C2610       C  0.72066985  0.22392924  0.32213300     0.36300
H2611       H  0.79766494  0.30136844  0.31343055     0.16700
O2612       O  0.80508088  0.30700929  0.35302799    -0.60200
H2613       H  0.70030347  0.20191780  0.35182557     0.16700
O2614       O  0.69357484  0.19564701  0.31222903    -0.60300
H2615       H  0.67357852  0.20040104  0.31233152     0.43700
H2616       H  0.82250016  0.29892204  0.35485247     0.43700
C2617       C  0.74943937  0.41040811  0.24884703    -0.05400
C2618       C  0.71702289  0.37872286  0.24647480    -0.32800
C2619       C  0.71546581  0.34585703  0.24623058     0.36400
C2620       C  0.74672087  0.34408020  0.24847438    -0.05700
C2621       C  0.77910519  0.37579223  0.25074757    -0.32700
C2622       C  0.78064905  0.40858146  0.25108325     0.36300
H2623       H  0.69261968  0.37928946  0.24471535     0.16700
O2624       O  0.68316632  0.31575630  0.24393021    -0.60200
H2625       H  0.80354774  0.37532285  0.25255767     0.16700
O2626       O  0.81292159  0.43858275  0.25371192    -0.60300
H2627       H  0.81594096  0.44175460  0.26876066     0.43700
H2628       H  0.67968754  0.31234194  0.22891853     0.43700
C2629       C  0.74866456  0.16005173  0.24979877    -0.05400
C2630       C  0.78130148  0.16089991  0.25079683    -0.32800
C2631       C  0.78288761  0.12959614  0.25099789     0.36400
C2632       C  0.75142023  0.09640780  0.25006061    -0.05700
C2633       C  0.71884581  0.09563138  0.24911770    -0.32700
C2634       C  0.71725664  0.12685909  0.24884813     0.36300
H2635       H  0.80587927  0.18596422  0.25149551     0.16700
O2636       O  0.81541563  0.13196108  0.25196425    -0.60200
H2637       H  0.69422684  0.07061775  0.24837768     0.16700
O2638       O  0.68469444  0.12438293  0.24771809    -0.60300
H2639       H  0.67955253  0.12333585  0.23286401     0.43700
H2640       H  0.82063926  0.13278774  0.26679381     0.43700
C2641       C  0.74671236  0.49962760  0.18776782    -0.05400
C2642       C  0.71408764  0.48737804  0.17782462    -0.32800
C2643       C  0.71166413  0.48504579  0.15642748     0.36400
C2644       C  0.74228393  0.49524889  0.14442997    -0.05700
C2645       C  0.77472096  0.00665718  0.15442068    -0.32700
C2646       C  0.77708254  0.00860316  0.17577671     0.36300
H2647       H  0.69022107  0.47975403  0.18663344     0.16700
O2648       O  0.67918332  0.47277115  0.14750594    -0.60200
H2649       H  0.79859845  0.01408578  0.14566351     0.16700
O2650       O  0.80933087  0.01932376  0.18466095    -0.60300
H2651       H  0.81029245  0.99727872  0.18674835     0.43700
H2652       H  0.67648186  0.49392265  0.14591343     0.43700
C2653       C  0.75666707  0.50214523  0.35426921    -0.05400
C2654       C  0.78487700  0.02935634  0.34328691    -0.32800
C2655       C  0.78434073  0.03031241  0.32187493     0.36400
C2656       C  0.75503866  0.50393377  0.31105591    -0.05700
C2657       C  0.72662391  0.47696908  0.32208586    -0.32700
C2658       C  0.72738580  0.47575550  0.34348394     0.36300
H2659       H  0.80758923  0.04987656  0.35132806     0.16700
O2660       O  0.81243612  0.05742225  0.31174175    -0.60200
H2661       H  0.70378489  0.45651762  0.31409951     0.16700
O2662       O  0.69866979  0.44957715  0.35372929    -0.60300
H2663       H  0.70203034  0.42868977  0.35345475     0.43700
H2664       H  0.80571048  0.07585335  0.30977496     0.43700
C2665       C  0.50114616  0.24900181  0.18809333    -0.05400
C2666       C  0.96945604  0.23830912  0.17743671    -0.32800
C2667       C  0.96845515  0.23682186  0.15603272     0.36400
C2668       C  0.49947352  0.24565167  0.14472778    -0.05700
C2669       C  0.53120035  0.25646918  0.15538179    -0.32700
C2670       C  0.53224075  0.25813503  0.17678840     0.36300
H2671       H  0.94521799  0.23131037  0.18569566     0.16700
O2672       O  0.93696441  0.22693258  0.14641246    -0.60200
H2673       H  0.55545125  0.26353511  0.14711922     0.16700
O2674       O  0.56386579  0.26864039  0.18640586    -0.60300
H2675       H  0.56455411  0.24651711  0.18877942     0.43700
H2676       H  0.93674315  0.24931627  0.14411772     0.43700
C2677       C  0.49858881  0.24776360  0.31138034    -0.05400
C2678       C  0.97087165  0.21932994  0.32199386    -0.32800
C2679       C  0.97011648  0.21855505  0.34344249     0.36400
C2680       C  0.49721899  0.24671455  0.35461973    -0.05700
C2681       C  0.52459062  0.27532630  0.34395465    -0.32700
C2682       C  0.52549362  0.27596653  0.32256567     0.36300
H2683       H  0.94989537  0.19745013  0.31364260     0.16700
O2684       O  0.94261270  0.19033077  0.35326360    -0.60200
H2685       H  0.54564348  0.29724968  0.35223375     0.16700
O2686       O  0.55263280  0.30455817  0.31277626    -0.60300
H2687       H  0.54338717  0.32079177  0.30992010     0.43700
H2688       H  0.92491631  0.19780352  0.35600194     0.43700
C2689       C  0.50230380  0.40764422  0.25170090    -0.05400
C2690       C  0.97067469  0.37624898  0.25645787    -0.32800
C2691       C  0.96895977  0.34327523  0.25603436     0.36400
C2692       C  0.49933458  0.34117052  0.25093124    -0.05700
C2693       C  0.53090443  0.37255928  0.24623961    -0.32700
C2694       C  0.53259631  0.40543149  0.24656454     0.36300
H2695       H  0.94704662  0.37714830  0.26058370     0.16700
O2696       O  0.93771712  0.31352232  0.26120317    -0.60200
H2697       H  0.55455113  0.37173657  0.24205761     0.16700
O2698       O  0.56378602  0.43501567  0.24112430    -0.60300
H2699       H  0.57847729  0.44206609  0.25367861     0.43700
H2700       H  0.92354969  0.30630995  0.24844544     0.43700
C2701       C  0.50455388  0.09382904  0.25061323    -0.05400
C2702       C  0.97253482  0.09348587  0.25398578    -0.32800
C2703       C  0.97108776  0.12478481  0.25380279     0.36400
C2704       C  0.50201314  0.15753881  0.24999097    -0.05700
C2705       C  0.53415448  0.15800224  0.24678680    -0.32700
C2706       C  0.53561572  0.12662844  0.24701731     0.36300
H2707       H  0.94830331  0.06879266  0.25694622     0.16700
O2708       O  0.93917131  0.12285162  0.25746164    -0.60200
H2709       H  0.55835524  0.18277828  0.24392074     0.16700
O2710       O  0.56761295  0.12852393  0.24374722    -0.60300
H2711       H  0.56974460  0.12752181  0.22865870     0.43700
H2712       H  0.93822692  0.12556291  0.27250375     0.43700
C2713       C  0.99985998  0.49753976  0.18977464    -0.05400
C2714       C  0.52888379  0.52373872  0.17875878    -0.32800
C2715       C  0.52941255  0.52367886  0.15734959     0.36400
C2716       C  0.00047639  0.49709416  0.14641684    -0.05700
C2717       C  0.97130571  0.97090648  0.15740677    -0.32700
C2718       C  0.97081774  0.97096556  0.17889517     0.36300
H2719       H  0.55129814  0.54469994  0.18677221     0.16700
O2720       O  0.55781277  0.55058976  0.14729494    -0.60200
H2721       H  0.94896935  0.94997029  0.14933302     0.16700
O2722       O  0.94256536  0.94407265  0.18905537    -0.60300
H2723       H  0.92403616  0.95092828  0.18915730     0.43700
H2724       H  0.57633178  0.54371245  0.14729740     0.43700
C2725       C  0.01021532  0.50635294  0.35636594    -0.05400
C2726       C  0.54138981  0.02727391  0.34520326    -0.32800
C2727       C  0.54110419  0.02681838  0.32372486     0.36400
C2728       C  0.00903768  0.50560680  0.31311485    -0.05700
C2729       C  0.97778356  0.48547603  0.32450346    -0.32700
C2730       C  0.97825349  0.48565887  0.34588852     0.36300
H2731       H  0.56616420  0.04334440  0.35315382     0.16700
O2732       O  0.57239648  0.04676017  0.31336478    -0.60200
H2733       H  0.95278413  0.46913201  0.31684626     0.16700
O2734       O  0.94719920  0.46559278  0.35644787    -0.60300
H2735       H  0.93821564  0.48197221  0.35959973     0.43700
H2736       H  0.57492948  0.07057751  0.31198393     0.43700
O2737       O  0.97380916  0.94230676  0.25289389    -0.74300
O2738       O  0.97510041  0.53064787  0.25165976    -0.74400
O2739       O  0.97210096  0.98421927  0.22291304    -0.74400
O2740       O  0.97712998  0.98884291  0.28155665    -0.74500
O2741       O  0.53599848  0.51737307  0.27982487    -0.74400
O2742       O  0.53104994  0.51393181  0.22135783    -0.74400
O2743       O  0.53399900  0.55974337  0.25028358    -0.74400
O2744       O  0.53265298  0.97119176  0.25082928    -0.74400
Ni2745     Ni  0.97243418  0.98548748  0.25232857     1.25400
Ni2746     Ni  0.53550733  0.51655023  0.25051478     1.25400
C2747       C  0.50302429  0.94207594  0.25185393     0.87800
C2748       C  0.50467187  0.55982396  0.25084917     0.87800
C2749       C  0.00090572  0.99844566  0.21245005     0.87800
C2750       C  0.00739226  0.00394150  0.29040028     0.88000
O2751       O  0.53051908  0.72074990  0.24978761    -0.74300
O2752       O  0.52873820  0.80751992  0.25019943    -0.74400
O2753       O  0.52877438  0.76353429  0.27923574    -0.74400
O2754       O  0.53022106  0.76463618  0.22065452    -0.74500
O2755       O  0.97127962  0.73487067  0.22042003    -0.74400
O2756       O  0.96976231  0.73270728  0.27900177    -0.74400
O2757       O  0.96978152  0.77753877  0.25027256    -0.74400
O2758       O  0.97158950  0.69054715  0.24930220    -0.74400
Ni2759     Ni  0.53164614  0.76520104  0.24996774     1.25400
Ni2760     Ni  0.96849064  0.73285031  0.24970941     1.25400
C2761       C  0.50130188  0.69121825  0.24963336     0.87800
C2762       C  0.49911308  0.80701143  0.25047482     0.87800
C2763       C  0.49906643  0.74796956  0.28877592     0.87800
C2764       C  0.50095326  0.74967093  0.21081924     0.88000
O2765       O  0.72211483  0.53321380  0.25065191    -0.74300
O2766       O  0.72080483  0.94490136  0.24974765    -0.74400
O2767       O  0.72346654  0.98924744  0.27949651    -0.74400
O2768       O  0.71954475  0.98852560  0.22090519    -0.74500
O2769       O  0.77842898  0.51711890  0.21947916    -0.74400
O2770       O  0.78242883  0.51896875  0.27801818    -0.74400
O2771       O  0.77971881  0.97390326  0.24861299    -0.74400
O2772       O  0.78098038  0.56239233  0.24891304    -0.74400
Ni2773     Ni  0.71939951  0.98802293  0.25025628     1.25400
Ni2774     Ni  0.78249395  0.51916912  0.24870034     1.25400
C2775       C  0.75165256  0.56243435  0.24990743     0.87800
C2776       C  0.75008467  0.94476109  0.24908323     0.87800
C2777       C  0.75361188  0.00416565  0.28842890     0.87800
C2778       C  0.74835911  0.00200647  0.21047606     0.88000
O2779       O  0.71664724  0.73562917  0.22031353    -0.74300
O2780       O  0.71823425  0.73739256  0.27884241    -0.74400
O2781       O  0.71706218  0.78046401  0.24920208    -0.74400
O2782       O  0.71830880  0.69321391  0.24984117    -0.74500
O2783       O  0.77722994  0.72327058  0.24944631    -0.74400
O2784       O  0.77598983  0.81026428  0.24844170    -0.74400
O2785       O  0.77722640  0.76792688  0.27836075    -0.74400
O2786       O  0.77557109  0.76538543  0.21967196    -0.74400
Ni2787     Ni  0.71547105  0.73565772  0.24958572     1.25400
Ni2788     Ni  0.77860320  0.76781674  0.24895751     1.25400
C2789       C  0.74584604  0.74991737  0.21028005     0.87800
C2790       C  0.74786846  0.75254765  0.28829360     0.87800
C2791       C  0.74643401  0.80988115  0.24866134     0.87800
C2792       C  0.74797248  0.69377418  0.24969172     0.88000
O2793       O  0.99556602  0.97559736  0.38806350    -0.74300
O2794       O  0.99316938  0.97234169  0.44666902    -0.74400
O2795       O  0.95086566  0.97393622  0.41718461    -0.74400
O2796       O  0.53838707  0.97385403  0.41739744    -0.74500
O2797       O  0.56831414  0.53277768  0.41855477    -0.74400
O2798       O  0.98047720  0.53288997  0.41779146    -0.74400
O2799       O  0.52271399  0.53132785  0.44754099    -0.74400
O2800       O  0.52625709  0.53468970  0.38889081    -0.74400
Ni2801     Ni  0.99355759  0.97186138  0.41730111     1.25400
Ni2802     Ni  0.52553134  0.53504858  0.41825482     1.25400
C2803       C  0.01094603  0.00558708  0.37886579     0.87800
C2804       C  0.50694701  0.00136592  0.45680587     0.87800
C2805       C  0.95111453  0.00342566  0.41737867     0.87800
C2806       C  0.56782825  0.00313989  0.41789759     0.88000
O2807       O  0.96961658  0.77783219  0.41634175    -0.74300
O2808       O  0.55729981  0.77776722  0.41551159    -0.74400
O2809       O  0.51265118  0.77680972  0.38664032    -0.74400
O2810       O  0.51443106  0.77866584  0.44524763    -0.74500
O2811       O  0.98511237  0.71971578  0.44584019    -0.74400
O2812       O  0.98287754  0.71776863  0.38722484    -0.74400
O2813       O  0.52800925  0.71876692  0.41616078    -0.74400
O2814       O  0.94015761  0.71889549  0.41703449    -0.74400
Ni2815     Ni  0.51452311  0.77984830  0.41590276     1.25400
Ni2816     Ni  0.98297934  0.71667722  0.41657681     1.25400
C2817       C  0.94029755  0.74837024  0.41683564     0.87800
C2818       C  0.55723317  0.74835943  0.41579816     0.87800
C2819       C  0.49744261  0.74702346  0.37725857     0.87800
C2820       C  0.50020218  0.74946716  0.45527564     0.88000
O2821       O  0.78707542  0.97127477  0.41530766    -0.74300
O2822       O  0.69993891  0.97284654  0.41619181    -0.74400
O2823       O  0.74284103  0.97228599  0.38645318    -0.74400
O2824       O  0.74361419  0.97134863  0.44500347    -0.74500
O2825       O  0.77343606  0.53029610  0.44520645    -0.74400
O2826       O  0.77381620  0.53132323  0.38657711    -0.74400
O2827       O  0.73032647  0.53179758  0.41606926    -0.74400
O2828       O  0.81710638  0.53021978  0.41578293    -0.74400
Ni2829     Ni  0.74232839  0.96982504  0.41571542     1.25400
Ni2830     Ni  0.77476304  0.53299011  0.41591166     1.25400
C2831       C  0.81658322  0.00058525  0.41560512     0.87800
C2832       C  0.70073985  0.00266889  0.41620095     0.87800
C2833       C  0.75787261  0.00189315  0.37686031     0.87800
C2834       C  0.75838890  0.00068420  0.45483346     0.88000
O2835       O  0.76421917  0.78030521  0.38703517    -0.74300
O2836       O  0.76341614  0.77834297  0.44575475    -0.74400
O2837       O  0.80795456  0.77992471  0.41628058    -0.74400
O2838       O  0.71947712  0.77866048  0.41661943    -0.74500
O2839       O  0.69053416  0.71964500  0.41663447    -0.74400
O2840       O  0.77896463  0.72100529  0.41527445    -0.74400
O2841       O  0.73514191  0.71942070  0.44516920    -0.74400
O2842       O  0.73426512  0.72128196  0.38646904    -0.74400
Ni2843     Ni  0.76477066  0.78140950  0.41642482     1.25400
Ni2844     Ni  0.73371792  0.71825471  0.41583310     1.25400
C2845       C  0.74933572  0.75111120  0.37704511     0.87800
C2846       C  0.74930471  0.74855133  0.45520865     0.87800
C2847       C  0.80812375  0.75062367  0.41590027     0.87800
C2848       C  0.69038102  0.74894479  0.41688696     0.88000
O2849       O  0.97189656  0.52530577  0.08454302    -0.74300
O2850       O  0.97092262  0.93714947  0.08467536    -0.74400
O2851       O  0.97105474  0.98107775  0.11405298    -0.74400
O2852       O  0.97182730  0.98147352  0.05533511    -0.74500
O2853       O  0.53083856  0.50927815  0.05538529    -0.74400
O2854       O  0.53003646  0.51111199  0.11397450    -0.74400
O2855       O  0.52983394  0.96604414  0.08529254    -0.74400
O2856       O  0.53081867  0.55432178  0.08394884    -0.74400
Ni2857     Ni  0.96932661  0.98019876  0.08466890     1.25400
Ni2858     Ni  0.53248267  0.51121767  0.08468126     1.25400
C2859       C  0.00149861  0.55445407  0.08394117     0.87800
C2860       C  0.00016773  0.93693144  0.08494343     0.87800
C2861       C  0.00051355  0.99638960  0.12371686     0.87800
C2862       C  0.00144893  0.99544272  0.04570017     0.88000
O2863       O  0.53007149  0.80399189  0.08353156    -0.74300
O2864       O  0.52913386  0.71586085  0.08258539    -0.74400
O2865       O  0.53002707  0.76094131  0.05376366    -0.74400
O2866       O  0.52917003  0.75918517  0.11234752    -0.74500
O2867       O  0.97023143  0.72995995  0.11220636    -0.74400
O2868       O  0.97108259  0.73239299  0.05356240    -0.74400
O2869       O  0.97022405  0.68683523  0.08221987    -0.74400
O2870       O  0.97114800  0.77508390  0.08357875    -0.74400
Ni2871     Ni  0.53167681  0.76096569  0.08305621     1.25400
Ni2872     Ni  0.96855859  0.72995980  0.08288336     1.25400
C2873       C  0.50081645  0.80419453  0.08373623     0.87800
C2874       C  0.49953907  0.68669450  0.08228191     0.87800
C2875       C  0.50075824  0.74735941  0.04395695     0.87800
C2876       C  0.49955441  0.74473423  0.12199895     0.88000
O2877       O  0.77088539  0.51001156  0.11182293    -0.74300
O2878       O  0.77154054  0.51034485  0.05338941    -0.74400
O2879       O  0.77089920  0.55414149  0.08253906    -0.74400
O2880       O  0.77089513  0.96620713  0.08250803    -0.74500
O2881       O  0.71196920  0.93688698  0.08231860    -0.74400
O2882       O  0.71195197  0.52452784  0.08282924    -0.74400
O2883       O  0.71252338  0.98145388  0.05320494    -0.74400
O2884       O  0.71194980  0.98030851  0.11205272    -0.74400
Ni2885     Ni  0.77313150  0.51124580  0.08259285     1.25400
Ni2886     Ni  0.70998421  0.97973543  0.08261545     1.25400
C2887       C  0.74149043  0.99503676  0.12167228     0.87800
C2888       C  0.74224940  0.99600446  0.04362497     0.87800
C2889       C  0.74133467  0.55385054  0.08254780     0.87800
C2890       C  0.74134931  0.93693584  0.08229552     0.88000
O2891       O  0.77290496  0.80486060  0.08314172    -0.74300
O2892       O  0.77250157  0.71683932  0.08253777    -0.74400
O2893       O  0.77443930  0.76192491  0.05380351    -0.74400
O2894       O  0.77146308  0.75980364  0.11205504    -0.74500
O2895       O  0.71252628  0.72998194  0.11165247    -0.74400
O2896       O  0.71537439  0.73374026  0.05298006    -0.74400
O2897       O  0.71356750  0.68768670  0.08147758    -0.74400
O2898       O  0.71397092  0.77561360  0.08294618    -0.74400
Ni2899     Ni  0.77489394  0.76189805  0.08294920     1.25400
Ni2900     Ni  0.71171775  0.73066619  0.08225402     1.25400
C2901       C  0.74350541  0.80484298  0.08296269     0.87800
C2902       C  0.74295596  0.68768912  0.08166084     0.87800
C2903       C  0.74544374  0.74834390  0.04381315     0.87800
C2904       C  0.74175261  0.74463155  0.12156062     0.88000
O2905       O  0.99070160  0.51592962  0.88919688    -0.74300
O2906       O  0.98899936  0.51244862  0.94776878    -0.74400
O2907       O  0.53347338  0.55817063  0.91918565    -0.74400
O2908       O  0.94613578  0.97032941  0.91766996    -0.74500
O2909       O  0.97570558  0.94095417  0.91692274    -0.74400
O2910       O  0.56333577  0.52910053  0.91853702    -0.74400
O2911       O  0.51886151  0.98332466  0.94705941    -0.74400
O2912       O  0.52073987  0.98697587  0.88842907    -0.74400
Ni2913     Ni  0.98878083  0.51524098  0.91849240     1.25400
Ni2914     Ni  0.52069584  0.98400140  0.91772151     1.25400
C2915       C  0.50611094  0.00217135  0.87912730     0.87800
C2916       C  0.50385395  0.99750092  0.95711234     0.87800
C2917       C  0.56289369  0.55826856  0.91899537     0.87800
C2918       C  0.94635478  0.94107306  0.91702469     0.88000
O2919       O  0.52880841  0.81153968  0.91677819    -0.74300
O2920       O  0.94153604  0.72295155  0.91654390    -0.74400
O2921       O  0.98472524  0.76650222  0.94601865    -0.74400
O2922       O  0.98501570  0.76786271  0.88742575    -0.74500
O2923       O  0.51480488  0.73865815  0.88689142    -0.74400
O2924       O  0.51585813  0.73859950  0.94553803    -0.74400
O2925       O  0.97183069  0.69431276  0.91643175    -0.74400
O2926       O  0.55873250  0.78252245  0.91593387    -0.74400
Ni2927     Ni  0.98397358  0.76828467  0.91672089     1.25400
Ni2928     Ni  0.51635394  0.73748936  0.91619326     1.25400
C2929       C  0.55826857  0.81165305  0.91621193     0.87800
C2930       C  0.94227362  0.69390684  0.91646227     0.87800
C2931       C  0.50022250  0.75231001  0.95542821     0.87800
C2932       C  0.49972391  0.75330827  0.87746683     0.88000
O2933       O  0.72228839  0.94319264  0.91561548    -0.74300
O2934       O  0.80982349  0.53144751  0.91651547    -0.74400
O2935       O  0.76523823  0.98634628  0.94540146    -0.74400
O2936       O  0.76712778  0.98817008  0.88675392    -0.74500
O2937       O  0.73774966  0.51771851  0.88677537    -0.74400
O2938       O  0.73463245  0.51474240  0.94544320    -0.74400
O2939       O  0.77978212  0.56033220  0.91689420    -0.74400
O2940       O  0.69260056  0.97244411  0.91532572    -0.74400
Ni2941     Ni  0.76719295  0.98624769  0.91607243     1.25400
Ni2942     Ni  0.73516982  0.51736166  0.91611678     1.25400
C2943       C  0.69290537  0.94322513  0.91539844     0.87800
C2944       C  0.80925406  0.56057726  0.91672371     0.87800
C2945       C  0.74935793  0.99997083  0.95510782     0.87800
C2946       C  0.75287667  0.00331774  0.87701816     0.88000
O2947       O  0.81095331  0.78064774  0.91632374    -0.74300
O2948       O  0.72312414  0.69326756  0.91699070    -0.74400
O2949       O  0.76667334  0.73677464  0.88729883    -0.74400
O2950       O  0.76717209  0.73719079  0.94590223    -0.74500
O2951       O  0.73769321  0.76668147  0.94596206    -0.74400
O2952       O  0.73755324  0.76658968  0.88747378    -0.74400
O2953       O  0.69369081  0.72277184  0.91700956    -0.74400
O2954       O  0.78186817  0.81051151  0.91650747    -0.74400
Ni2955     Ni  0.76802643  0.73593429  0.91661108     1.25400
Ni2956     Ni  0.73667774  0.76772522  0.91673282     1.25400
C2957       C  0.81105319  0.81007938  0.91627847     0.87800
C2958       C  0.69384639  0.69344669  0.91727777     0.87800
C2959       C  0.75210410  0.75173390  0.87766104     0.87800
C2960       C  0.75218806  0.75171677  0.95562627     0.88000
O2961       O  0.96932964  0.53094827  0.58479495    -0.74300
O2962       O  0.55687305  0.53048050  0.58435590    -0.74400
O2963       O  0.51314535  0.53063088  0.55530275    -0.74400
O2964       O  0.51333761  0.53097644  0.61389413    -0.74500
O2965       O  0.98430143  0.97200236  0.61411692    -0.74400
O2966       O  0.98287133  0.97165025  0.55527269    -0.74400
O2967       O  0.52722239  0.97151010  0.58408572    -0.74400
O2968       O  0.93966444  0.97200159  0.58528090    -0.74400
Ni2969     Ni  0.51417465  0.53282434  0.58458606     1.25400
Ni2970     Ni  0.98240513  0.96967346  0.58470487     1.25400
C2971       C  0.93995662  0.00155830  0.58516198     0.87800
C2972       C  0.55658118  0.00094518  0.58401772     0.87800
C2973       C  0.49851638  0.00120340  0.54556329     0.87800
C2974       C  0.49899418  0.00161337  0.62374086     0.88000
O2975       O  0.96848898  0.77752787  0.58311810    -0.74300
O2976       O  0.55573761  0.77660435  0.58367276    -0.74400
O2977       O  0.51295029  0.77721062  0.55401392    -0.74400
O2978       O  0.51134451  0.77704454  0.61265419    -0.74500
O2979       O  0.98252632  0.71796794  0.61269525    -0.74400
O2980       O  0.98281084  0.71826410  0.55404416    -0.74400
O2981       O  0.52620140  0.71763517  0.58336957    -0.74400
O2982       O  0.93881763  0.71856868  0.58356386    -0.74400
Ni2983     Ni  0.51319071  0.77918338  0.58334982     1.25400
Ni2984     Ni  0.98147024  0.71600164  0.58339144     1.25400
C2985       C  0.93912253  0.74813363  0.58356361     0.87800
C2986       C  0.55551447  0.74709456  0.58356996     0.87800
C2987       C  0.49830710  0.74774406  0.54428653     0.87800
C2988       C  0.49691755  0.74749702  0.62232464     0.88000
O2989       O  0.71769515  0.52806588  0.58138762    -0.74300
O2990       O  0.80559493  0.52845367  0.58331116    -0.74400
O2991       O  0.76302887  0.52731786  0.55306761    -0.74400
O2992       O  0.76043301  0.52924225  0.61158329    -0.74500
O2993       O  0.73142223  0.97018593  0.61205598    -0.74400
O2994       O  0.73366758  0.96836142  0.55349860    -0.74400
O2995       O  0.77629753  0.96949312  0.58376246    -0.74400
O2996       O  0.68833555  0.96908908  0.58193142    -0.74400
Ni2997     Ni  0.76267966  0.53036205  0.58228569     1.25400
Ni2998     Ni  0.73131491  0.96718078  0.58282116     1.25400
C2999       C  0.68843473  0.99853510  0.58154949     0.87800
C3000       C  0.80552633  0.99902305  0.58392104     0.87800
C3001       C  0.74930100  0.99764116  0.54357981     0.87800
C3002       C  0.74593252  0.99992493  0.62147732     0.88000
O3003       O  0.77810348  0.72033086  0.58371352    -0.74300
O3004       O  0.68890448  0.71730031  0.58327489    -0.74400
O3005       O  0.73424332  0.71897412  0.55400198    -0.74400
O3006       O  0.73319291  0.71898109  0.61272380    -0.74500
O3007       O  0.76052048  0.77800693  0.61264752    -0.74400
O3008       O  0.76287442  0.77790764  0.55410577    -0.74400
O3009       O  0.71707732  0.77625751  0.58283394    -0.74400
O3010       O  0.80636836  0.77928455  0.58401281    -0.74400
Ni3011     Ni  0.73259378  0.71679204  0.58340674     1.25400
Ni3012     Ni  0.76269727  0.77995190  0.58337728     1.25400
C3013       C  0.80698712  0.75019016  0.58407642     0.87800
C3014       C  0.68821430  0.74632923  0.58314769     0.87800
C3015       C  0.74900138  0.74856352  0.54430527     0.87800
C3016       C  0.74673340  0.74852094  0.62233606     0.88000
O3017       O  0.51657678  0.98801062  0.78056001    -0.74300
O3018       O  0.51288266  0.98523000  0.72201289    -0.74400
O3019       O  0.55886008  0.53034053  0.75016707    -0.74400
O3020       O  0.97038693  0.94320460  0.75235219    -0.74500
O3021       O  0.94153122  0.97328533  0.75205524    -0.74400
O3022       O  0.52985044  0.56024474  0.75122274    -0.74400
O3023       O  0.98529992  0.51666947  0.72227324    -0.74400
O3024       O  0.98658178  0.51700630  0.78101718    -0.74400
Ni3025     Ni  0.51568691  0.98561186  0.75127097     1.25400
Ni3026     Ni  0.98476307  0.51785384  0.75166991     1.25400
C3027       C  0.50208822  0.50282562  0.79048700     0.87800
C3028       C  0.49879723  0.00071521  0.71248305     0.87800
C3029       C  0.55896208  0.55981056  0.75043205     0.87800
C3030       C  0.94127157  0.94378207  0.75228572     0.88000
O3031       O  0.55608070  0.77926296  0.74911517    -0.74300
O3032       O  0.96835227  0.69146488  0.75046941    -0.74400
O3033       O  0.51137393  0.73441756  0.72048537    -0.74400
O3034       O  0.51316197  0.73642607  0.77908751    -0.74500
O3035       O  0.98323177  0.76549372  0.77916810    -0.74400
O3036       O  0.98259100  0.76462346  0.72058808    -0.74400
O3037       O  0.93909478  0.72113965  0.75024575    -0.74400
O3038       O  0.52675832  0.80887976  0.74948236    -0.74400
Ni3039     Ni  0.51328295  0.73432577  0.74979332     1.25400
Ni3040     Ni  0.98185233  0.76605531  0.74987436     1.25400
C3041       C  0.55600856  0.80861956  0.74914209     0.87800
C3042       C  0.93911865  0.69176956  0.75048395     0.87800
C3043       C  0.49688879  0.74944287  0.71084208     0.87800
C3044       C  0.49863735  0.75141860  0.78881374     0.88000
O3045       O  0.71730665  0.94211750  0.74892504    -0.74300
O3046       O  0.80585545  0.52881876  0.74856061    -0.74400
O3047       O  0.76216363  0.98569433  0.77811670    -0.74400
O3048       O  0.76098125  0.98557789  0.71941282    -0.74500
O3049       O  0.73300941  0.51660334  0.71986987    -0.74400
O3050       O  0.73317449  0.51562636  0.77843776    -0.74400
O3051       O  0.77734351  0.55922967  0.74926609    -0.74400
O3052       O  0.68858884  0.97233215  0.74903675    -0.74400
Ni3053     Ni  0.76255096  0.98443057  0.74873228     1.25400
Ni3054     Ni  0.73196155  0.51697482  0.74916776     1.25400
C3055       C  0.68825993  0.94276049  0.74886534     0.87800
C3056       C  0.80632264  0.55840557  0.74907759     0.87800
C3057       C  0.74827655  0.50118657  0.78801601     0.87800
C3058       C  0.74703824  0.50133597  0.70996428     0.88000
O3059       O  0.72250367  0.69202891  0.74929709    -0.74300
O3060       O  0.80959080  0.78036385  0.74942769    -0.74400
O3061       O  0.76645780  0.73556841  0.77867892    -0.74400
O3062       O  0.76539051  0.73676961  0.72003594    -0.74500
O3063       O  0.73585962  0.76622990  0.72089932    -0.74400
O3064       O  0.73638255  0.76442056  0.77940241    -0.74400
O3065       O  0.77978967  0.80948098  0.75038479    -0.74400
O3066       O  0.69261873  0.72107664  0.74996959    -0.74400
Ni3067     Ni  0.76708441  0.73517797  0.74931717     1.25400
Ni3068     Ni  0.73509700  0.76632331  0.75018662     1.25400
C3069       C  0.69308678  0.69190164  0.74952920     0.87800
C3070       C  0.80920810  0.80954013  0.75017270     0.87800
C3071       C  0.75162583  0.74990003  0.78876537     0.87800
C3072       C  0.75023765  0.75151458  0.71078632     0.88000
C3073       C  0.84060793  0.59217057  0.74963962    -0.05400
C3074       C  0.84055633  0.62431481  0.75087961    -0.32800
C3075       C  0.87217460  0.65675011  0.75134106     0.36400
C3076       C  0.90502147  0.65773687  0.75057261    -0.05700
C3077       C  0.90512370  0.62555949  0.74958670    -0.32700
C3078       C  0.87343874  0.59306009  0.74922017     0.36300
H3079       H  0.81582605  0.62450939  0.75149063     0.16700
O3080       O  0.87043903  0.68723235  0.75286938    -0.60200
H3081       H  0.92989286  0.62543584  0.74901927     0.16700
O3082       O  0.87508126  0.56248069  0.74814273    -0.60300
H3083       H  0.87699094  0.55644347  0.76255345     0.43700
H3084       H  0.86721711  0.69302189  0.73863404     0.43700
C3085       C  0.65413060  0.90871955  0.74862203    -0.05400
C3086       C  0.65443816  0.87667670  0.74992617    -0.32800
C3087       C  0.62296483  0.84404823  0.75008809     0.36400
C3088       C  0.59002306  0.84274413  0.74880983    -0.05700
C3089       C  0.58969106  0.87476055  0.74729311    -0.32700
C3090       C  0.62121858  0.90742360  0.74707441     0.36300
H3091       H  0.67924876  0.87673372  0.75099179     0.16700
O3092       O  0.62494984  0.81368383  0.75142671    -0.60200
H3093       H  0.56484802  0.87463343  0.74619639     0.16700
O3094       O  0.61933656  0.93781229  0.74548524    -0.60300
H3095       H  0.61866438  0.94170939  0.73056304     0.43700
H3096       H  0.62554982  0.80947248  0.76631309     0.43700
C3097       C  0.90709346  0.90978989  0.75220891    -0.05400
C3098       C  0.90736111  0.87776666  0.75365545    -0.32800
C3099       C  0.87594421  0.84512981  0.75314078     0.36400
C3100       C  0.84308864  0.84377451  0.75093670    -0.05700
C3101       C  0.84272662  0.87579808  0.74970434    -0.32700
C3102       C  0.87420508  0.90850287  0.75027429     0.36300
H3103       H  0.93211695  0.87783980  0.75521912     0.16700
O3104       O  0.87791565  0.81478896  0.75472340    -0.55400
H3105       H  0.81792326  0.87563404  0.74814150     0.16700
O3106       O  0.87229554  0.93891340  0.74898157    -0.60300
H3107       H  0.87242253  0.94357428  0.73410159     0.43700
H3108       H  0.87675458  0.80988213  0.76962859     0.43700
C3109       C  0.59313350  0.59374385  0.74985662    -0.05400
C3110       C  0.62500392  0.59333533  0.74763566    -0.32800
C3111       C  0.65769183  0.62484488  0.74742831     0.36400
C3112       C  0.65907947  0.65780173  0.74938726    -0.05700
C3113       C  0.62718649  0.65817164  0.75137618    -0.32700
C3114       C  0.59456550  0.62674701  0.75156258     0.36300
H3115       H  0.62474304  0.56845708  0.74608914     0.16700
O3116       O  0.68795744  0.62295380  0.74496699    -0.60200
H3117       H  0.62735145  0.68300147  0.75292511     0.16700
O3118       O  0.56437167  0.62880765  0.75388755    -0.60300
H3119       H  0.55816597  0.63255008  0.73986717     0.43700
H3120       H  0.69401493  0.61866717  0.75890244     0.43700
C3121       C  0.74684438  0.74873501  0.64492381    -0.05400
C3122       C  0.74367252  0.77503676  0.65553938    -0.32800
C3123       C  0.74432204  0.77611512  0.67696771     0.36400
C3124       C  0.74896960  0.75102052  0.68814132    -0.05700
C3125       C  0.75220875  0.72479411  0.67745006    -0.32700
C3126       C  0.75090732  0.72335590  0.65606557     0.36300
H3127       H  0.74033699  0.79465000  0.64719380     0.16700
O3128       O  0.74050029  0.80188014  0.68675410    -0.60200
H3129       H  0.75547354  0.70505741  0.68569592     0.16700
O3130       O  0.75415237  0.69729541  0.64622327    -0.60300
H3131       H  0.77961314  0.70829512  0.64260379     0.43700
H3132       H  0.76496858  0.82154461  0.68911608     0.43700
C3133       C  0.74631950  0.00036087  0.64408235    -0.05400
C3134       C  0.74625071  0.02833681  0.65471561    -0.32800
C3135       C  0.74638994  0.02902894  0.67616118     0.36400
C3136       C  0.74697270  0.00159948  0.68732299    -0.05700
C3137       C  0.74769391  0.47402117  0.67663715    -0.32700
C3138       C  0.74731409  0.47320974  0.65524402     0.36300
H3139       H  0.74572338  0.04956552  0.64638765     0.16700
O3140       O  0.74625255  0.05678450  0.68599884    -0.60200
H3141       H  0.74826331  0.45276084  0.68489828     0.16700
O3142       O  0.74840460  0.44593585  0.64541800    -0.60300
H3143       H  0.77386233  0.45482444  0.64262125     0.43700
H3144       H  0.77155369  0.07441019  0.68830742     0.43700
C3145       C  0.84123737  0.75057314  0.58453628    -0.05400
C3146       C  0.84114770  0.71872326  0.58808439    -0.32800
C3147       C  0.87258072  0.71749684  0.58795123     0.36400
C3148       C  0.90525027  0.74854185  0.58414038    -0.05700
C3149       C  0.90545832  0.78057620  0.58099570    -0.32700
C3150       C  0.87398281  0.78184497  0.58130495     0.36300
H3151       H  0.81651819  0.69441292  0.59103043     0.16700
O3152       O  0.87096342  0.68587392  0.59210365    -0.60200
H3153       H  0.93013589  0.80488177  0.57814004     0.16700
O3154       O  0.87561875  0.81366895  0.57785741    -0.60300
H3155       H  0.88084579  0.82551944  0.59140492     0.43700
H3156       H  0.86507352  0.67303297  0.57886199     0.43700
C3157       C  0.58951742  0.74700792  0.58364782    -0.05400
C3158       C  0.58975468  0.71547062  0.58782877    -0.32800
C3159       C  0.62148103  0.71463385  0.58779116     0.36400
C3160       C  0.65386439  0.74570775  0.58337661    -0.05700
C3161       C  0.65353791  0.77717823  0.57933862    -0.32700
C3162       C  0.62199243  0.77811385  0.57958676     0.36300
H3163       H  0.56528414  0.69132415  0.59133792     0.16700
O3164       O  0.62053190  0.68359775  0.59277936    -0.60200
H3165       H  0.67793462  0.80142908  0.57588734     0.16700
O3166       O  0.62330887  0.80954725  0.57529012    -0.60300
H3167       H  0.62927276  0.82257887  0.58847267     0.43700
H3168       H  0.61399577  0.66959125  0.57993995     0.43700
C3169       C  0.49676500  0.74761685  0.64491057    -0.05400
C3170       C  0.99318885  0.77377423  0.65537482    -0.32800
C3171       C  0.99251135  0.77434383  0.67679615     0.36400
C3172       C  0.49664672  0.74911594  0.68816387    -0.05700
C3173       C  0.50076361  0.72326381  0.67762401    -0.32700
C3174       C  0.50031334  0.72206105  0.65619826     0.36300
H3175       H  0.99035552  0.79358550  0.64690575     0.16700
O3176       O  0.98891746  0.80037743  0.68640630    -0.60200
H3177       H  0.50397723  0.70361167  0.68600253     0.16700
O3178       O  0.50486761  0.69672116  0.64644374    -0.60300
H3179       H  0.48106845  0.67519317  0.64633879     0.43700
H3180       H  0.96308685  0.79160572  0.68659159     0.43700
C3181       C  0.90583142  0.00149925  0.58535499    -0.05400
C3182       C  0.87395769  0.96935156  0.58803872    -0.32800
C3183       C  0.84124456  0.96806913  0.58779237     0.36400
C3184       C  0.83973368  0.99934997  0.58471003    -0.05700
C3185       C  0.87161995  0.53156441  0.58229735    -0.32700
C3186       C  0.90434845  0.53290166  0.58276352     0.36300
H3187       H  0.87423407  0.94489105  0.59039198     0.16700
O3188       O  0.81105789  0.93613513  0.59107732    -0.60200
H3189       H  0.87134376  0.55602797  0.57995358     0.16700
O3190       O  0.93458995  0.56505678  0.58022129    -0.60300
H3191       H  0.94038066  0.57575969  0.59408752     0.43700
H3192       H  0.80510427  0.92417757  0.57755781     0.43700
C3193       C  0.65448967  0.99875677  0.58172365    -0.05400
C3194       C  0.65469990  0.53038571  0.58627481    -0.32800
C3195       C  0.62323105  0.53150928  0.58722390     0.36400
C3196       C  0.59047896  0.00065754  0.58338225    -0.05700
C3197       C  0.59024981  0.96902571  0.57876736    -0.32700
C3198       C  0.62175618  0.96790339  0.57784045     0.36300
H3199       H  0.67938504  0.55443531  0.58945049     0.16700
O3200       O  0.62497905  0.56297710  0.59205547    -0.60200
H3201       H  0.56553327  0.94496877  0.57565863     0.16700
O3202       O  0.62007085  0.93643765  0.57309274    -0.60300
H3203       H  0.62243506  0.93664412  0.55796592     0.43700
H3204       H  0.62291311  0.56281752  0.60719967     0.43700
C3205       C  0.49935582  0.00183561  0.64650815    -0.05400
C3206       C  0.49293869  0.97119745  0.65723421    -0.32800
C3207       C  0.49310807  0.97061664  0.67869390     0.36400
C3208       C  0.49861151  0.00059723  0.68986455    -0.05700
C3209       C  0.00474370  0.53110971  0.67925032    -0.32700
C3210       C  0.00585457  0.53218192  0.65780572     0.36300
H3211       H  0.48808185  0.94761647  0.64898305     0.16700
O3212       O  0.48647233  0.94014026  0.68860214    -0.60200
H3213       H  0.00943405  0.55453495  0.68762965     0.16700
O3214       O  0.01245794  0.56281340  0.64811504    -0.60300
H3215       H  0.03863556  0.57776654  0.64773292     0.43700
H3216       H  0.50951555  0.94075069  0.68881734     0.43700
C3217       C  0.75211020  0.75171229  0.85491918    -0.05400
C3218       C  0.76595722  0.73325899  0.84426306    -0.32800
C3219       C  0.76599826  0.73227990  0.82283564     0.36400
C3220       C  0.75209182  0.75009317  0.81150672    -0.05700
C3221       C  0.73844053  0.76870578  0.82217441    -0.32700
C3222       C  0.73854117  0.76982502  0.84357006     0.36300
H3223       H  0.77672455  0.71926272  0.85253606     0.16700
O3224       O  0.77995899  0.71398459  0.81323157    -0.60200
H3225       H  0.72774304  0.78279622  0.81393135     0.16700
O3226       O  0.72508035  0.78862600  0.85311952    -0.60300
H3227       H  0.74531038  0.81316334  0.85419708     0.43700
H3228       H  0.76009672  0.68923514  0.81227764     0.43700
C3229       C  0.75005373  0.50266554  0.81077812    -0.05400
C3230       C  0.76611052  0.48623910  0.82124366    -0.32800
C3231       C  0.76813188  0.48698048  0.84265705     0.36400
C3232       C  0.75336001  0.00387878  0.85422518    -0.05700
C3233       C  0.73814222  0.02109509  0.84373588    -0.32700
C3234       C  0.73643747  0.02066744  0.82232466     0.36300
H3235       H  0.77722993  0.47262771  0.81283060     0.16700
O3236       O  0.78412884  0.47051421  0.85202425    -0.60200
H3237       H  0.72716689  0.03485470  0.85213507     0.16700
O3238       O  0.72178100  0.03841881  0.81293651    -0.60300
H3239       H  0.69592106  0.02151717  0.81286073     0.43700
H3240       H  0.80959813  0.48871854  0.85266720     0.43700
C3241       C  0.90848969  0.65955649  0.91641609    -0.05400
C3242       C  0.87621548  0.65941791  0.91594606    -0.32800
C3243       C  0.84385377  0.62764641  0.91589330     0.36400
C3244       C  0.84309391  0.59487170  0.91661103    -0.05700
C3245       C  0.87536811  0.59499308  0.91693490    -0.32700
C3246       C  0.90775012  0.62677839  0.91683474     0.36300
H3247       H  0.87588593  0.68409694  0.91551554     0.16700
O3248       O  0.81321396  0.62917760  0.91524280    -0.60200
H3249       H  0.87567629  0.57029995  0.91727482     0.16700
O3250       O  0.93841778  0.62526446  0.91687351    -0.60300
H3251       H  0.94341785  0.62370315  0.93152613     0.43700
H3252       H  0.80856118  0.63016627  0.90046427     0.43700
C3253       C  0.65869876  0.90930816  0.91537281    -0.05400
C3254       C  0.62690692  0.90986034  0.91309769    -0.32800
C3255       C  0.59410774  0.87852335  0.91324057     0.36400
C3256       C  0.59243482  0.84559237  0.91586455    -0.05700
C3257       C  0.62423109  0.84503969  0.91803679    -0.32700
C3258       C  0.65700997  0.87634923  0.91790160     0.36300
H3259       H  0.62731943  0.93473662  0.91110776     0.16700
O3260       O  0.56397071  0.88060156  0.91083045    -0.60200
H3261       H  0.62383972  0.82017724  0.92004767     0.16700
O3262       O  0.68711928  0.87420696  0.92027452    -0.60300
H3263       H  0.69090976  0.87499915  0.93528337     0.43700
H3264       H  0.55991880  0.87925826  0.89583414     0.43700
C3265       C  0.49942911  0.75341028  0.85479178    -0.05400
C3266       C  0.52465734  0.74870713  0.84394917    -0.32800
C3267       C  0.52509035  0.74857555  0.82253122     0.36400
C3268       C  0.49951553  0.75246426  0.81147536    -0.05700
C3269       C  0.97451382  0.75756155  0.82230357    -0.32700
C3270       C  0.97427360  0.75801584  0.84373179     0.36300
H3271       H  0.54455502  0.74562913  0.85209111     0.16700
O3272       O  0.55100141  0.74513165  0.81261442    -0.60200
H3273       H  0.95466228  0.76070486  0.81415260     0.16700
O3274       O  0.94903440  0.76257859  0.85363980    -0.60300
H3275       H  0.92868198  0.73832743  0.85568823     0.43700
H3276       H  0.57073247  0.76971601  0.81053259     0.43700
C3277       C  0.91205888  0.90723097  0.91643094    -0.05400
C3278       C  0.88062613  0.90799569  0.91297959    -0.32800
C3279       C  0.84770432  0.87680298  0.91267082     0.36400
C3280       C  0.84549721  0.84378161  0.91605590    -0.05700
C3281       C  0.87696415  0.84297594  0.91926586    -0.32700
C3282       C  0.90990061  0.87416527  0.91951886     0.36300
H3283       H  0.88144047  0.93294302  0.91039932     0.16700
O3284       O  0.81795799  0.87911131  0.90907392    -0.60200
H3285       H  0.87615171  0.81803079  0.92184978     0.16700
O3286       O  0.93968435  0.87183528  0.92291675    -0.60300
H3287       H  0.94248578  0.87283335  0.93801669     0.43700
H3288       H  0.81489434  0.87725242  0.89398998     0.43700
C3289       C  0.59660278  0.59265890  0.91904268    -0.05400
C3290       C  0.59562347  0.62439826  0.91814546    -0.32800
C3291       C  0.62679582  0.65732647  0.91772938     0.36400
C3292       C  0.66003396  0.65915774  0.91802488    -0.05700
C3293       C  0.66098763  0.62742513  0.91915892    -0.32700
C3294       C  0.62983868  0.59452010  0.91961243     0.36300
H3295       H  0.57053167  0.62385990  0.91765971     0.16700
O3296       O  0.62425494  0.68740331  0.91667081    -0.60200
H3297       H  0.68606250  0.62792914  0.91963590     0.16700
O3298       O  0.63240596  0.56446996  0.92086196    -0.60300
H3299       H  0.63508500  0.55867253  0.90650734     0.43700
H3300       H  0.62164877  0.69304199  0.93107527     0.43700
C3301       C  0.50629159  0.00341921  0.85646188    -0.05400
C3302       C  0.98033513  0.00777541  0.84638482    -0.32800
C3303       C  0.97864681  0.00765821  0.82500518     0.36400
C3304       C  0.50346743  0.00353049  0.81316950    -0.05700
C3305       C  0.52980871  0.49970293  0.82323615    -0.32700
C3306       C  0.53151947  0.49986916  0.84465807     0.36300
H3307       H  0.96062240  0.01047504  0.85510963     0.16700
O3308       O  0.95208848  0.01084734  0.81590655    -0.60200
H3309       H  0.54942540  0.49689360  0.81447665     0.16700
O3310       O  0.55811385  0.49680234  0.85382602    -0.60300
H3311       H  0.57787746  0.52146323  0.85546624     0.43700
H3312       H  0.93218490  0.98622399  0.81438580     0.43700
C3313       C  0.74697144  0.74929360  0.02138224    -0.05400
C3314       C  0.77054393  0.74132284  0.01129041    -0.32800
C3315       C  0.77221487  0.74138231  0.98990931     0.36400
C3316       C  0.75099741  0.75090826  0.97828674    -0.05700
C3317       C  0.72783711  0.75947512  0.98856552    -0.32700
C3318       C  0.72540355  0.75825645  0.00992687     0.36300
H3319       H  0.78722927  0.73429407  0.02002531     0.16700
O3320       O  0.79511025  0.73267095  0.98063474    -0.60200
H3321       H  0.71120332  0.76681564  0.98004869     0.16700
O3322       O  0.70300608  0.76734068  0.01949713    -0.60300
H3323       H  0.67947440  0.74546057  0.01942780     0.43700
H3324       H  0.78194449  0.70642412  0.97982914     0.43700
C3325       C  0.74135578  0.90286833  0.08207479    -0.05400
C3326       C  0.77364966  0.90322070  0.08024103    -0.32800
C3327       C  0.77487142  0.87175983  0.08047481     0.36400
C3328       C  0.74336104  0.83884582  0.08261652    -0.05700
C3329       C  0.71099531  0.83845224  0.08415188    -0.32700
C3330       C  0.70974061  0.86989376  0.08374481     0.36300
H3331       H  0.79828806  0.92804950  0.07859254     0.16700
O3332       O  0.80703639  0.87364213  0.07812101    -0.60200
H3333       H  0.68633159  0.81361440  0.08569117     0.16700
O3334       O  0.67742041  0.86790182  0.08538153    -0.60300
H3335       H  0.66825638  0.86434591  0.07117982     0.43700
H3336       H  0.81736993  0.87816502  0.09205503     0.43700
C3337       C  0.74119142  0.58782655  0.08199499    -0.05400
C3338       C  0.77253678  0.61931602  0.07711535    -0.32800
C3339       C  0.77336620  0.65180504  0.07645758     0.36400
C3340       C  0.74260319  0.65350189  0.08109428    -0.05700
C3341       C  0.71105446  0.62192942  0.08549277    -0.32700
C3342       C  0.71014623  0.58940144  0.08602368     0.36300
H3343       H  0.79658441  0.61882485  0.07358530     0.16700
O3344       O  0.80444126  0.68164244  0.07116311    -0.60200
H3345       H  0.68697025  0.62241115  0.08893129     0.16700
O3346       O  0.67872712  0.55943807  0.09065050    -0.60300
H3347       H  0.67812647  0.55780628  0.10581684     0.43700
H3348       H  0.80331221  0.68367506  0.05608248     0.43700
C3349       C  0.74756088  0.99837162  0.97775611    -0.05400
C3350       C  0.71908864  0.49844308  0.98787939    -0.32800
C3351       C  0.71653101  0.49689166  0.00928437     0.36400
C3352       C  0.74321948  0.99619271  0.02099325    -0.05700
C3353       C  0.77179079  0.99631974  0.01089008    -0.32700
C3354       C  0.77384555  0.99685255  0.98948492     0.36300
H3355       H  0.69850989  0.49942716  0.97916220     0.16700
O3356       O  0.68867683  0.49767900  0.01859197    -0.60200
H3357       H  0.79256283  0.99571292  0.01962109     0.16700
O3358       O  0.80241202  0.99734981  0.98025538    -0.60300
H3359       H  0.79660492  0.97225108  0.97994789     0.43700
H3360       H  0.66901700  0.47275325  0.01856988     0.43700
C3361       C  0.50026902  0.75178653  0.97801631    -0.05400
C3362       C  0.53061541  0.75695819  0.98832625    -0.32800
C3363       C  0.53147856  0.75636767  0.00973776     0.36400
C3364       C  0.50112308  0.74922761  0.02126404    -0.05700
C3365       C  0.97069806  0.74398810  0.01085680    -0.32700
C3366       C  0.97029707  0.74575574  0.98944723     0.36300
H3367       H  0.55398568  0.76191908  0.97973673     0.16700
O3368       O  0.56184188  0.76177417  0.01914632    -0.60200
H3369       H  0.94713004  0.73873208  0.01932212     0.16700
O3370       O  0.93994184  0.73991692  0.97982300    -0.60300
H3371       H  0.94082095  0.76310124  0.98005116     0.43700
H3372       H  0.57703563  0.78787961  0.02015306     0.43700
C3373       C  0.49988337  0.90274426  0.08470858    -0.05400
C3374       C  0.53215969  0.90285120  0.08484466    -0.32800
C3375       C  0.53300215  0.87121234  0.08454377     0.36400
C3376       C  0.50109701  0.83836450  0.08411384    -0.05700
C3377       C  0.96882222  0.83825350  0.08394471    -0.32700
C3378       C  0.96798722  0.86989675  0.08407705     0.36300
H3379       H  0.55708077  0.92761632  0.08513516     0.16700
O3380       O  0.56528449  0.87294045  0.08432972    -0.60200
H3381       H  0.94390437  0.81349019  0.08356471     0.16700
O3382       O  0.93571862  0.86817800  0.08370630    -0.60300
H3383       H  0.92964549  0.86687818  0.06898281     0.43700
H3384       H  0.57209126  0.87447350  0.09893282     0.43700
C3385       C  0.49955084  0.65259826  0.08220192    -0.05400
C3386       C  0.53200149  0.65300621  0.08230529    -0.32800
C3387       C  0.53319525  0.62152871  0.08268905     0.36400
C3388       C  0.50148641  0.58851684  0.08315435    -0.05700
C3389       C  0.96903831  0.58809366  0.08277279    -0.32700
C3390       C  0.96784260  0.61957026  0.08235543     0.36300
H3391       H  0.55680424  0.67789898  0.08215983     0.16700
O3392       O  0.56561616  0.62357629  0.08294787    -0.60200
H3393       H  0.94423805  0.56319730  0.08290404     0.16700
O3394       O  0.93542427  0.61751893  0.08195676    -0.60300
H3395       H  0.92796453  0.61536615  0.09650937     0.43700
H3396       H  0.57268685  0.62520031  0.06834840     0.43700
C3397       C  0.00182042  0.99577108  0.02308986    -0.05400
C3398       C  0.52816418  0.99266650  0.01244551    -0.32800
C3399       C  0.52890030  0.99261864  0.99099473     0.36400
C3400       C  0.50350173  0.99665327  0.97980201    -0.05700
C3401       C  0.97750829  0.50031593  0.99052861    -0.32700
C3402       C  0.97641587  0.49970463  0.01194724     0.36300
H3403       H  0.54803281  0.98981290  0.02078446     0.16700
O3404       O  0.55529464  0.98984788  0.98119072    -0.60200
H3405       H  0.95773818  0.50346768  0.98229187     0.16700
O3406       O  0.95072043  0.50356531  0.02182418    -0.60300
H3407       H  0.96144817  0.52939367  0.02421055     0.43700
H3408       H  0.54676053  0.96406965  0.98059485     0.43700
C3409       C  0.74943587  0.74800570  0.47800073    -0.05400
C3410       C  0.76700027  0.78013264  0.48880169    -0.32800
C3411       C  0.76748826  0.78077199  0.51023267     0.36400
C3412       C  0.74986917  0.74882221  0.52150796    -0.05700
C3413       C  0.73263016  0.71665570  0.51071455    -0.32700
C3414       C  0.73219394  0.71602280  0.48925858     0.36300
H3415       H  0.78058620  0.80511182  0.48063600     0.16700
O3416       O  0.78504235  0.81296486  0.51989599    -0.60200
H3417       H  0.71904783  0.69170064  0.51890294     0.16700
O3418       O  0.71484607  0.68386013  0.47955300    -0.60300
H3419       H  0.69001079  0.67853222  0.47821220     0.43700
H3420       H  0.80974512  0.81796230  0.52140479     0.43700
C3421       C  0.75745651  0.00016781  0.47757620    -0.05400
C3422       C  0.74200114  0.96758264  0.48805883    -0.32800
C3423       C  0.73945492  0.96613336  0.50946912     0.36400
C3424       C  0.75201337  0.99766874  0.52089998    -0.05700
C3425       C  0.76811816  0.53020387  0.51041739    -0.32700
C3426       C  0.77096030  0.53168679  0.48908242     0.36300
H3427       H  0.73169464  0.94294727  0.47966514     0.16700
O3428       O  0.72433891  0.93368679  0.51893234    -0.60200
H3429       H  0.77852455  0.55490400  0.51874963     0.16700
O3430       O  0.78720030  0.56426241  0.47974436    -0.60300
H3431       H  0.76839795  0.57056142  0.47820611     0.43700
H3432       H  0.74399872  0.92873516  0.52088913     0.43700
C3433       C  0.50095342  0.74975340  0.47803910    -0.05400
C3434       C  0.98841111  0.71762561  0.48868720    -0.32800
C3435       C  0.98759260  0.71651067  0.51010864     0.36400
C3436       C  0.49940908  0.74796513  0.52150635    -0.05700
C3437       C  0.51263298  0.78021933  0.51086627    -0.32700
C3438       C  0.51370748  0.78136055  0.48941870     0.36300
H3439       H  0.97906652  0.69300153  0.48040768     0.16700
O3440       O  0.97586135  0.68450490  0.51965664    -0.60200
H3441       H  0.52209258  0.80483703  0.51916901     0.16700
O3442       O  0.52658379  0.81351263  0.47984220    -0.60300
H3443       H  0.55255214  0.82333032  0.47892993     0.43700
H3444       H  0.94970333  0.67335233  0.52011270     0.43700
C3445       C  0.84223598  0.75065014  0.41639770    -0.05400
C3446       C  0.84179904  0.71822375  0.41748868    -0.32800
C3447       C  0.87323992  0.71698601  0.41787890     0.36400
C3448       C  0.90630086  0.74862139  0.41704333    -0.05700
C3449       C  0.90676669  0.78110601  0.41625873    -0.32700
C3450       C  0.87529295  0.78235347  0.41612881     0.36300
H3451       H  0.81689789  0.69345766  0.41810786     0.16700
O3452       O  0.87112924  0.68460485  0.41944693    -0.60200
H3453       H  0.93168531  0.80586610  0.41575676     0.16700
O3454       O  0.87736993  0.81479439  0.41548056    -0.60300
H3455       H  0.87930108  0.82231696  0.42999035     0.43700
H3456       H  0.86772712  0.67545651  0.40522986     0.43700
C3457       C  0.65623457  0.74860484  0.41715712    -0.05400
C3458       C  0.65502202  0.77833511  0.40999863    -0.32800
C3459       C  0.62306647  0.77849835  0.40928928     0.36400
C3460       C  0.59136783  0.74864115  0.41599741    -0.05700
C3461       C  0.59260725  0.71899820  0.42336869    -0.32700
C3462       C  0.62466020  0.71892278  0.42417241     0.36300
H3463       H  0.67888763  0.80143791  0.40452737     0.16700
O3464       O  0.62320360  0.80793479  0.40175737    -0.60200
H3465       H  0.56873158  0.69595717  0.42888824     0.16700
O3466       O  0.62479141  0.68986078  0.43211689    -0.60300
H3467       H  0.63030518  0.69524317  0.44686042     0.43700
H3468       H  0.61825245  0.80330208  0.38691527     0.43700
C3469       C  0.50448834  0.00059842  0.47949800    -0.05400
C3470       C  0.52820903  0.53068190  0.49067278    -0.32800
C3471       C  0.52644607  0.53126249  0.51204997     0.36400
C3472       C  0.50038619  0.00142264  0.52283396    -0.05700
C3473       C  0.97656841  0.97128319  0.51167015    -0.32700
C3474       C  0.97827707  0.97077337  0.49022306     0.36300
H3475       H  0.54859540  0.55390468  0.48282840     0.16700
O3476       O  0.55074114  0.56112824  0.52219941    -0.60200
H3477       H  0.95622040  0.94810242  0.51956226     0.16700
O3478       O  0.95382180  0.94114666  0.47995535    -0.60300
H3479       H  0.93424179  0.94567419  0.47667780     0.43700
H3480       H  0.57067648  0.55706914  0.52531337     0.43700
C3481       C  0.91688709  0.00307978  0.41704578    -0.05400
C3482       C  0.88500199  0.97052454  0.41587620    -0.32800
C3483       C  0.85224297  0.96912146  0.41531321     0.36400
C3484       C  0.85071353  0.00069839  0.41594216    -0.05700
C3485       C  0.88260464  0.53321794  0.41717530    -0.32700
C3486       C  0.91531652  0.53461104  0.41785612     0.36300
H3487       H  0.88529198  0.94582837  0.41535142     0.16700
O3488       O  0.82198890  0.93663571  0.41442829    -0.60200
H3489       H  0.88236156  0.55793310  0.41776266     0.16700
O3490       O  0.94550241  0.56708389  0.41917677    -0.60300
H3491       H  0.94952004  0.57196711  0.43406323     0.43700
H3492       H  0.81810721  0.93077892  0.39963747     0.43700
C3493       C  0.60170586  0.00276877  0.41751560    -0.05400
C3494       C  0.63384220  0.53466890  0.41491461    -0.32800
C3495       C  0.66619247  0.53517322  0.41436911     0.36400
C3496       C  0.66700220  0.00331628  0.41647009    -0.05700
C3497       C  0.63485515  0.97144452  0.41897491    -0.32700
C3498       C  0.60253565  0.97091531  0.41941646     0.36300
H3499       H  0.63402270  0.55947130  0.41314535     0.16700
O3500       O  0.69667840  0.56692716  0.41127344    -0.60200
H3501       H  0.63459999  0.94659811  0.42068418     0.16700
O3502       O  0.57203316  0.93905605  0.42217751    -0.60300
H3503       H  0.56550165  0.92843973  0.40831312     0.43700
H3504       H  0.70375327  0.57772803  0.42506578     0.43700
C3505       C  0.74499519  0.74825479  0.18758016    -0.05400
C3506       C  0.71257481  0.72739107  0.17747811    -0.32800
C3507       C  0.71083976  0.72559532  0.15605502     0.36400
C3508       C  0.74193956  0.74486142  0.14426434    -0.05700
C3509       C  0.77430920  0.76536528  0.15440715    -0.32700
C3510       C  0.77608401  0.76705765  0.17573711     0.36300
H3511       H  0.68832862  0.71226144  0.18618157     0.16700
O3512       O  0.67874773  0.70435269  0.14692143    -0.60200
H3513       H  0.79865299  0.78055299  0.14579809     0.16700
O3514       O  0.80837748  0.78795200  0.18473204    -0.60300
H3515       H  0.81941152  0.77286078  0.18556751     0.43700
H3516       H  0.66703431  0.71884224  0.14640099     0.43700
C3517       C  0.74811967  0.75202259  0.31097627    -0.05400
C3518       C  0.77623051  0.77961962  0.32170295    -0.32800
C3519       C  0.77695458  0.77970972  0.34316520     0.36400
C3520       C  0.74936866  0.75174463  0.35433353    -0.05700
C3521       C  0.72160782  0.72382876  0.34357870    -0.32700
C3522       C  0.72066955  0.72392912  0.32213302     0.36300
H3523       H  0.79766452  0.80136837  0.31343050     0.16700
O3524       O  0.80508059  0.80700931  0.35302795    -0.60200
H3525       H  0.70030331  0.70191768  0.35182561     0.16700
O3526       O  0.69357465  0.69564680  0.31222905    -0.60300
H3527       H  0.67357824  0.70040070  0.31233149     0.43700
H3528       H  0.82249997  0.79892216  0.35485236     0.43700
C3529       C  0.74943912  0.91040798  0.24884727    -0.05400
C3530       C  0.71702286  0.87872289  0.24647386    -0.32800
C3531       C  0.71546578  0.84585705  0.24622955     0.36400
C3532       C  0.74672061  0.84408008  0.24847448    -0.05700
C3533       C  0.77910473  0.87579197  0.25074883    -0.32700
C3534       C  0.78064858  0.90858120  0.25108464     0.36300
H3535       H  0.69261991  0.87928965  0.24471347     0.16700
O3536       O  0.68316657  0.81575643  0.24392792    -0.60200
H3537       H  0.80354705  0.87532244  0.25255980     0.16700
O3538       O  0.81292078  0.93858233  0.25371465    -0.60300
H3539       H  0.81593806  0.94175361  0.26876353     0.43700
H3540       H  0.67968968  0.81234273  0.22891610     0.43700
C3541       C  0.74866425  0.66005162  0.24979881    -0.05400
C3542       C  0.78130121  0.66089988  0.25079698    -0.32800
C3543       C  0.78288738  0.62959612  0.25099804     0.36400
C3544       C  0.75142002  0.59640773  0.25006064    -0.05700
C3545       C  0.71884551  0.59563121  0.24911767    -0.32700
C3546       C  0.71725633  0.62685892  0.24884812     0.36300
H3547       H  0.80587897  0.68596421  0.25149576     0.16700
O3548       O  0.81541541  0.63196108  0.25196455    -0.60200
H3549       H  0.69422657  0.57061759  0.24837759     0.16700
O3550       O  0.68469410  0.62438272  0.24771808    -0.60300
H3551       H  0.67955214  0.62333558  0.23286401     0.43700
H3552       H  0.82063888  0.63278773  0.26679414     0.43700
C3553       C  0.74671229  0.99962750  0.18776783    -0.05400
C3554       C  0.71408760  0.98737807  0.17782462    -0.32800
C3555       C  0.71166406  0.98504576  0.15642750     0.36400
C3556       C  0.74228381  0.99524864  0.14442999    -0.05700
C3557       C  0.77472111  0.50665760  0.15442067    -0.32700
C3558       C  0.77708267  0.50860347  0.17577670     0.36300
H3559       H  0.69022104  0.97975412  0.18663346     0.16700
O3560       O  0.67918324  0.97277116  0.14750596    -0.60200
H3561       H  0.79859865  0.51408641  0.14566349     0.16700
O3562       O  0.80933103  0.51932427  0.18466094    -0.60300
H3563       H  0.81029278  0.49727932  0.18674834     0.43700
H3564       H  0.67648181  0.99392268  0.14591344     0.43700
C3565       C  0.75666694  0.00214523  0.35426919    -0.05400
C3566       C  0.78487711  0.52935638  0.34328694    -0.32800
C3567       C  0.78434077  0.53031257  0.32187496     0.36400
C3568       C  0.75503864  0.00393360  0.31105589    -0.05700
C3569       C  0.72662391  0.97696888  0.32208585    -0.32700
C3570       C  0.72738574  0.97575539  0.34348393     0.36300
H3571       H  0.80758940  0.54987653  0.35132808     0.16700
O3572       O  0.81243616  0.55742249  0.31174181    -0.60200
H3573       H  0.70378494  0.95651736  0.31409948     0.16700
O3574       O  0.69866967  0.94957710  0.35372929    -0.60300
H3575       H  0.70203012  0.92868965  0.35345480     0.43700
H3576       H  0.80571048  0.57585359  0.30977504     0.43700
C3577       C  0.50114637  0.74900181  0.18809324    -0.05400
C3578       C  0.96945589  0.73830771  0.17743664    -0.32800
C3579       C  0.96845497  0.73682032  0.15603265     0.36400
C3580       C  0.49947359  0.74565148  0.14472770    -0.05700
C3581       C  0.53120062  0.75646970  0.15538166    -0.32700
C3582       C  0.53224106  0.75813564  0.17678827     0.36300
H3583       H  0.94521758  0.73130784  0.18569559     0.16700
O3584       O  0.93696376  0.72692920  0.14641244    -0.60200
H3585       H  0.55545162  0.76353621  0.14711905     0.16700
O3586       O  0.56386633  0.76864196  0.18640569    -0.60300
H3587       H  0.56455545  0.74651913  0.18877932     0.43700
H3588       H  0.93674083  0.74931206  0.14411781     0.43700
C3589       C  0.49858883  0.74776366  0.31138032    -0.05400
C3590       C  0.97087143  0.71933003  0.32199387    -0.32800
C3591       C  0.97011620  0.71855510  0.34344250     0.36400
C3592       C  0.49721893  0.74671453  0.35461972    -0.05700
C3593       C  0.52459064  0.77532619  0.34395465    -0.32700
C3594       C  0.52549370  0.77596649  0.32256566     0.36300
H3595       H  0.94989504  0.69745031  0.31364260     0.16700
O3596       O  0.94261227  0.69033089  0.35326359    -0.60200
H3597       H  0.54564357  0.79724951  0.35223376     0.16700
O3598       O  0.55263294  0.80455810  0.31277628    -0.60300
H3599       H  0.54338744  0.82079188  0.30992023     0.43700
H3600       H  0.92491600  0.69780380  0.35600192     0.43700
C3601       C  0.50230408  0.90764436  0.25170093    -0.05400
C3602       C  0.97067487  0.87624902  0.25645782    -0.32800
C3603       C  0.96895982  0.84327524  0.25603429     0.36400
C3604       C  0.49933491  0.84117068  0.25093122    -0.05700
C3605       C  0.53090484  0.87255947  0.24623973    -0.32700
C3606       C  0.53259669  0.90543168  0.24656467     0.36300
H3607       H  0.94704677  0.87714836  0.26058360     0.16700
O3608       O  0.93771709  0.81352234  0.26120303    -0.60200
H3609       H  0.55455157  0.87173679  0.24205783     0.16700
O3610       O  0.56378644  0.93501592  0.24112459    -0.60300
H3611       H  0.57847762  0.94206617  0.25367896     0.43700
H3612       H  0.92354977  0.80631010  0.24844525     0.43700
C3613       C  0.50455392  0.59382905  0.25061343    -0.05400
C3614       C  0.97253512  0.59348613  0.25398650    -0.32800
C3615       C  0.97108809  0.62478505  0.25380348     0.36400
C3616       C  0.50201322  0.65753884  0.24999104    -0.05700
C3617       C  0.53415456  0.65800223  0.24678678    -0.32700
C3618       C  0.53561576  0.62662842  0.24701738     0.36300
H3619       H  0.94830375  0.56879301  0.25694741     0.16700
O3620       O  0.93917191  0.62285207  0.25746300    -0.60200
H3621       H  0.55835531  0.68277823  0.24392057     0.16700
O3622       O  0.56761289  0.62852379  0.24374708    -0.60300
H3623       H  0.56974432  0.62752180  0.22865853     0.43700
H3624       H  0.93822873  0.62556424  0.27250510     0.43700
C3625       C  0.99986021  0.99753986  0.18977462    -0.05400
C3626       C  0.52888428  0.02373877  0.17875878    -0.32800
C3627       C  0.52941306  0.02367897  0.15734959     0.36400
C3628       C  0.00047679  0.99709431  0.14641684    -0.05700
C3629       C  0.97130523  0.47090651  0.15740682    -0.32700
C3630       C  0.97081739  0.47096562  0.17889522     0.36300
H3631       H  0.55129868  0.04469994  0.18677222     0.16700
O3632       O  0.55781337  0.05058982  0.14729494    -0.60200
H3633       H  0.94896872  0.44997042  0.14933309     0.16700
O3634       O  0.94256499  0.44407282  0.18905548    -0.60300
H3635       H  0.92403590  0.45092856  0.18915741     0.43700
H3636       H  0.57633233  0.04371243  0.14729740     0.43700
C3637       C  0.01021526  0.00635253  0.35636585    -0.05400
C3638       C  0.54139004  0.52727417  0.34520324    -0.32800
C3639       C  0.54110441  0.52681863  0.32372484     0.36400
C3640       C  0.00903767  0.00560659  0.31311478    -0.05700
C3641       C  0.97778356  0.98547580  0.32450337    -0.32700
C3642       C  0.97825342  0.98565854  0.34588841     0.36300
H3643       H  0.56616437  0.54334506  0.35315380     0.16700
O3644       O  0.57239659  0.54676095  0.31336475    -0.60200
H3645       H  0.95278411  0.96913184  0.31684613     0.16700
O3646       O  0.94719904  0.96559256  0.35644774    -0.60300
H3647       H  0.93821573  0.98197214  0.35959967     0.43700
H3648       H  0.57492906  0.57057809  0.31198397     0.43700
loop_ 
_geom_bond_atom_site_label_1 
_geom_bond_atom_site_label_2 
_geom_bond_distance 
_geom_bond_site_symmetry_2 
_ccdc_geom_bond_type 
O1           Ni9   1.913       .  S
O1         C1835   1.281       .  A
O2         Ni921   1.913   1_545  S
O2         C1836   1.282       .  A
O3           Ni9   1.921       .  S
O3           C13   1.282       .  A
O4           Ni9   1.917       .  S
O4           C14   1.283       .  A
O5          Ni10   1.913       .  S
O5         C2750   1.280       .  A
O6          Ni10   1.911       .  S
O6         C2749   1.281   1_545  A
O7          Ni10   1.916       .  S
O7           C12   1.281       .  A
O8         Ni922   1.918       .  S
O8           C11   1.282       .  A
Ni9         O914   1.913       .  S
Ni9       Ni2746   2.385       .  S
Ni10        O920   1.918   1_545  S
Ni10      Ni2745   2.385   1_445  S
C11        O1825   1.281   1_455  A
C11         C865   1.485       .  S
C12        O1826   1.282   1_455  A
C12         C877   1.485       .  S
C13        O2742   1.281       .  A
C13         C889   1.481       .  S
C14        O2741   1.280       .  A
C14         C904   1.485       .  S
O15         Ni23   1.913       .  S
O15          C25   1.281       .  A
O16         Ni23   1.911       .  S
O16          C26   1.281   1_455  A
O17         Ni23   1.913       .  S
O17          C27   1.281   1_455  A
O18         Ni23   1.914       .  S
O18          C28   1.281       .  A
O19         Ni24   1.914       .  S
O19        C1852   1.281       .  A
O20         Ni24   1.913       .  S
O20        C1851   1.280       .  A
O21         Ni24   1.921       .  S
O21        C1850   1.282       .  A
O22         Ni24   1.915       .  S
O22        C1849   1.282       .  A
Ni23      Ni1848   2.385   1_455  S
Ni24      Ni1847   2.385       .  S
C25        O1846   1.282   1_455  A
C25         C880   1.484       .  S
C26        O1845   1.282       .  A
C26         C868   1.484       .  S
C27        O1844   1.280       .  A
C27         C853   1.475       .  S
C28        O1843   1.281   1_455  A
C28         C841   1.484       .  S
O29        Ni949   1.913   1_545  S
O29          C39   1.282       .  A
O30         Ni37   1.911       .  S
O30          C40   1.280       .  A
O31         Ni37   1.916       .  S
O31          C41   1.281       .  A
O32         Ni37   1.916       .  S
O32          C42   1.282       .  A
O33         Ni38   1.914       .  S
O33         C954   1.281       .  A
O34         Ni38   1.914       .  S
O34         C953   1.280       .  A
O35        Ni950   1.915       .  S
O35          C40   1.282       .  A
O36         Ni38   1.918       .  S
O36          C39   1.281       .  A
Ni37        O941   1.913       .  S
Ni37       Ni950   2.385       .  S
Ni38        O947   1.915   1_545  S
Ni38       Ni949   2.385   1_545  S
C39         C808   1.486       .  S
C40         C793   1.484       .  S
C41         O946   1.280       .  A
C41         C832   1.479       .  S
C42         O945   1.281       .  A
C42         C817   1.485       .  S
O43         Ni51   1.911       .  S
O43          C53   1.280       .  A
O44         Ni51   1.913       .  S
O44          C54   1.280       .  A
O45         Ni51   1.919       .  S
O45          C55   1.282       .  A
O46         Ni51   1.915       .  S
O46          C56   1.282       .  A
O47         Ni52   1.913       .  S
O47          C56   1.281       .  A
O48         Ni52   1.910       .  S
O48          C55   1.281       .  A
O49         Ni52   1.920       .  S
O49          C54   1.282       .  A
O50         Ni52   1.916       .  S
O50          C53   1.282       .  A
Ni51        Ni52   2.385       .  S
C53         C769   1.483       .  S
C54         C781   1.481       .  S
C55         C796   1.484       .  S
C56         C805   1.485       .  S
O57         Ni65   1.913       .  S
O57          C67   1.281       .  A
O58         Ni65   1.917       .  S
O58        C1892   1.281       .  A
O59         Ni65   1.909       .  S
O59          C69   1.280       .  A
O60       Ni1889   1.913   1_455  S
O60          C70   1.281       .  A
O61         Ni66   1.917       .  S
O61         C982   1.282       .  A
O62       Ni1890   1.920       .  S
O62         C981   1.283       .  A
O63         Ni66   1.917       .  S
O63         C980   1.282       .  A
O64         Ni66   1.917       .  S
O64        C2803   1.280       .  A
Ni65       O1884   1.913       .  S
Ni65      Ni2802   2.386       .  S
Ni66       O1886   1.920   1_455  S
Ni66      Ni2801   2.386   1_445  S
C67        O2800   1.280       .  A
C67         C901   1.470       .  S
C68        O1882   1.281   1_455  A
C68         O975   1.282       .  A
C68         C733   1.484       .  S
C69         O974   1.283       .  A
C69         C745   1.485       .  S
C70         O973   1.282       .  A
C70         C757   1.486       .  S
O71       Ni1903   1.916       .  S
O71          C81   1.282       .  A
O72         Ni79   1.913       .  S
O72          C82   1.280       .  A
O73         Ni79   1.914       .  S
O73          C83   1.281   1_455  A
O74         Ni79   1.916       .  S
O74          C84   1.281       .  A
O75         Ni80   1.914       .  S
O75        C1908   1.282       .  A
O76         Ni80   1.917       .  S
O76        C1907   1.281       .  A
O77       Ni1904   1.920   1_455  S
O77          C82   1.282       .  A
O78         Ni80   1.918       .  S
O78          C81   1.282       .  A
Ni79       O1895   1.916   1_455  S
Ni79      Ni1904   2.385   1_455  S
Ni80       O1901   1.920       .  S
Ni80      Ni1903   2.385       .  S
C81         C712   1.488       .  S
C82         C724   1.483       .  S
C83        O1900   1.281       .  A
C83         C856   1.478       .  S
C84        O1899   1.282   1_455  A
C84         C697   1.486       .  S
O85         Ni93   1.921       .  S
O85          C95   1.282       .  A
O86         Ni93   1.918       .  S
O86          C96   1.283       .  A
O87         Ni93   1.913       .  S
O87          C97   1.280       .  A
O88         Ni93   1.913       .  S
O88          C98   1.281       .  A
O89         Ni94   1.915       .  S
O89        C1010   1.281       .  A
O90         Ni94   1.916       .  S
O90        C1009   1.281       .  A
O91         Ni94   1.912       .  S
O91        C1008   1.280       .  A
O92         Ni94   1.910       .  S
O92        C1007   1.280       .  A
Ni93      Ni1006   2.385       .  S
Ni94      Ni1005   2.385   1_545  S
C95        O1004   1.280       .  A
C95         C748   1.486       .  S
C96        O1003   1.280       .  A
C96         C760   1.486       .  S
C97        O1002   1.281       .  A
C97         C829   1.476       .  S
C98        O1001   1.281       .  A
C98         C685   1.485       .  S
O99        Ni107   1.919       .  S
O99         C109   1.281       .  A
O100       Ni107   1.918       .  S
O100        C110   1.282       .  A
O101       Ni107   1.916       .  S
O101        C111   1.281       .  A
O102       Ni107   1.918       .  S
O102        C112   1.282       .  A
O103       Ni108   1.915       .  S
O103        C112   1.281       .  A
O104       Ni108   1.916       .  S
O104        C111   1.282       .  A
O105       Ni108   1.916       .  S
O105        C110   1.281       .  A
O106       Ni108   1.921       .  S
O106        C109   1.282       .  A
Ni107      Ni108   2.384       .  S
C109        C784   1.483       .  S
C110        C673   1.488       .  S
C111        C709   1.488       .  S
C112        C721   1.482       .  S
O113      Ni1033   1.913   1_545  S
O113        C123   1.281       .  A
O114       Ni121   1.912       .  S
O114        C124   1.280       .  A
O115       Ni121   1.919       .  S
O115        C125   1.282       .  A
O116       Ni121   1.917       .  S
O116        C126   1.281       .  A
O117       Ni122   1.914       .  S
O117       C2862   1.280   1_545  A
O118       Ni122   1.914       .  S
O118       C2861   1.281   1_545  A
O119      Ni1034   1.914       .  S
O119       C1948   1.282       .  A
O120       Ni122   1.917       .  S
O120       C1947   1.282       .  A
Ni121      O1025   1.913       .  S
Ni121     Ni2858   2.385       .  S
Ni122      O1031   1.914   1_545  S
Ni122     Ni2857   2.385   1_445  S
C123       O1944   1.282       .  A
C123       C2476   1.486       .  S
C124       O1943   1.282       .  A
C124       C2461   1.484       .  S
C125       O2854   1.281       .  A
C125        C892   1.482       .  S
C126       O2853   1.280       .  A
C126        C661   1.476       .  S
O127       Ni135   1.912       .  S
O127        C137   1.280       .  A
O128       Ni135   1.913       .  S
O128        C138   1.281   1_455  A
O129       Ni135   1.914       .  S
O129        C139   1.281       .  A
O130       Ni135   1.914       .  S
O130        C140   1.281   1_455  A
O131       Ni136   1.916       .  S
O131       C1964   1.281       .  A
O132       Ni136   1.916       .  S
O132       C1963   1.282       .  A
O133       Ni136   1.917       .  S
O133       C1962   1.282       .  A
O134       Ni136   1.913       .  S
O134       C1961   1.282       .  A
Ni135     Ni1960   2.384   1_455  S
Ni136     Ni1959   2.384       .  S
C137       O1958   1.282   1_455  A
C137        C640   1.483       .  S
C138       O1957   1.282       .  A
C138        C649   1.486       .  S
C139       O1956   1.282   1_455  A
C139        C628   1.483       .  S
C140       O1955   1.281       .  A
C140        C844   1.484       .  S
O141       Ni149   1.909       .  S
O141       C1063   1.280   1_545  A
O142       Ni149   1.907       .  S
O142       C1064   1.279   1_545  A
O143       Ni149   1.920       .  S
O143        C153   1.283       .  A
O144      Ni1061   1.916       .  S
O144        C154   1.282       .  A
O145       Ni150   1.912       .  S
O145        C154   1.280       .  A
O146      Ni1062   1.911   1_545  S
O146        C153   1.280       .  A
O147       Ni150   1.922       .  S
O147        C152   1.283       .  A
O148       Ni150   1.923       .  S
O148        C151   1.283       .  A
Ni149      O1056   1.916   1_545  S
Ni149     Ni1062   2.385   1_545  S
Ni150      O1058   1.911       .  S
Ni150     Ni1061   2.385       .  S
C151       O1053   1.280       .  A
C151        C820   1.486       .  S
C152       O1054   1.279       .  A
C152        C616   1.478       .  S
C153        C601   1.485       .  S
C154        C589   1.485       .  S
O155       Ni163   1.917       .  S
O155        C165   1.282       .  A
O156       Ni163   1.914       .  S
O156        C166   1.281       .  A
O157       Ni163   1.903       .  S
O157        C167   1.278       .  A
O158       Ni163   1.904       .  S
O158        C168   1.280       .  A
O159       Ni164   1.920       .  S
O159        C168   1.282       .  A
O160       Ni164   1.916       .  S
O160        C167   1.281       .  A
O161       Ni164   1.916       .  S
O161        C166   1.282       .  A
O162       Ni164   1.912       .  S
O162        C165   1.281       .  A
Ni163      Ni164   2.387       .  S
C165        C592   1.485       .  S
C166        C604   1.483       .  S
C167        C577   1.465       .  S
C168        C772   1.482       .  S
O169       Ni177   1.913       .  S
O169       C2915   1.281       .  A
O170       Ni177   1.915       .  S
O170       C2916   1.282   1_545  A
O171      Ni2001   1.912   1_455  S
O171        C181   1.281       .  A
O172      Ni1089   1.911       .  S
O172        C182   1.281       .  A
O173      Ni2002   1.921       .  S
O173        C182   1.283       .  A
O174      Ni1090   1.916   1_545  S
O174        C181   1.281       .  A
O175       Ni178   1.916       .  S
O175        C180   1.281       .  A
O176       Ni178   1.916       .  S
O176        C179   1.281       .  A
Ni177      O1995   1.912       .  S
Ni177      O1084   1.911   1_545  S
Ni177     Ni2914   2.385   1_545  S
Ni178      O1997   1.921   1_455  S
Ni178      O1086   1.916       .  S
Ni178     Ni2913   2.385   1_455  S
C179       O2905   1.281   1_455  A
C179        C565   1.480       .  S
C180       O2906   1.282   1_455  A
C180        C664   1.481       .  S
C181        C553   1.485       .  S
C182        C541   1.486       .  S
O183      Ni2015   1.921   1_455  S
O183        C193   1.283       .  A
O184       Ni191   1.916       .  S
O184        C194   1.282       .  A
O185       Ni191   1.915       .  S
O185       C2019   1.280       .  A
O186       Ni191   1.913       .  S
O186       C2020   1.280       .  A
O187       Ni192   1.916       .  S
O187        C196   1.282   1_455  A
O188       Ni192   1.916       .  S
O188        C195   1.281       .  A
O189      Ni2016   1.912       .  S
O189        C194   1.280       .  A
O190       Ni192   1.908       .  S
O190        C193   1.280       .  A
Ni191      O2007   1.921       .  S
Ni191     Ni2016   2.386       .  S
Ni192      O2013   1.912   1_455  S
Ni192     Ni2015   2.386   1_455  S
C193        C520   1.485       .  S
C194        C505   1.485       .  S
C195       O2009   1.280   1_455  A
C195        C625   1.475       .  S
C196       O2010   1.280       .  A
C196        C529   1.480       .  S
O197       Ni205   1.919       .  S
O197        C207   1.282       .  A
O198      Ni1117   1.917   1_545  S
O198        C208   1.282       .  A
O199       Ni205   1.916       .  S
O199        C209   1.281       .  A
O200       Ni205   1.916       .  S
O200        C210   1.281       .  A
O201       Ni206   1.918       .  S
O201       C1122   1.282       .  A
O202       Ni206   1.917       .  S
O202       C1121   1.282   1_545  A
O203       Ni206   1.911       .  S
O203        C208   1.280       .  A
O204      Ni1118   1.910       .  S
O204        C207   1.280       .  A
Ni205      O1110   1.917       .  S
Ni205     Ni1118   2.384       .  S
Ni206      O1116   1.910   1_545  S
Ni206     Ni1117   2.384   1_545  S
C207        C517   1.485       .  S
C208        C508   1.485       .  S
C209       O1114   1.282       .  A
C209        C613   1.480       .  S
C210       O1113   1.282       .  A
C210        C496   1.488       .  S
O211       Ni219   1.912       .  S
O211        C221   1.281       .  A
O212       Ni219   1.911       .  S
O212        C222   1.281       .  A
O213       Ni219   1.915       .  S
O213        C223   1.282       .  A
O214       Ni219   1.913       .  S
O214        C224   1.281       .  A
O215       Ni220   1.910       .  S
O215        C224   1.280       .  A
O216       Ni220   1.911       .  S
O216        C223   1.280       .  A
O217       Ni220   1.918       .  S
O217        C222   1.282       .  A
O218       Ni220   1.920       .  S
O218        C221   1.282       .  A
Ni219      Ni220   2.384       .  S
C221        C544   1.486       .  S
C222        C556   1.485       .  S
C223        C481   1.484       .  S
C224        C580   1.480       .  S
O225      Ni2057   1.916       .  S
O225       C1147   1.281       .  A
O226       Ni233   1.915       .  S
O226       C1148   1.281       .  A
O227       Ni233   1.913       .  S
O227       C1149   1.281   1_455  A
O228       Ni233   1.914       .  S
O228       C1150   1.280   1_455  A
O229       Ni234   1.922       .  S
O229       C2062   1.283       .  A
O230       Ni234   1.923       .  S
O230       C2061   1.283       .  A
O231      Ni2058   1.916   1_455  S
O231        C236   1.282       .  A
O232       Ni234   1.917       .  S
O232        C235   1.282       .  A
Ni233      O2049   1.916   1_455  S
Ni233     Ni2970   2.384   1_445  S
Ni234      O2055   1.916       .  S
Ni234     Ni2969   2.384       .  S
C235       O1137   1.281       .  A
C235        C445   1.487       .  S
C236       O1138   1.281       .  A
C236        C460   1.485       .  S
C237       O1139   1.281   1_655  A
C237       O2054   1.283       .  A
C237        C736   1.485   1_655  S
C238       O1140   1.280   1_655  A
C238       O2053   1.283       .  A
C238        C469   1.486       .  S
O239      Ni2071   1.914       .  S
O239        C249   1.281       .  A
O240       Ni247   1.914       .  S
O240        C250   1.281       .  A
O241       Ni247   1.916       .  S
O241        C251   1.282   1_455  A
O242       Ni247   1.914       .  S
O242        C252   1.281   1_455  A
O243       Ni248   1.914       .  S
O243       C2076   1.281       .  A
O244       Ni248   1.917       .  S
O244       C2075   1.282       .  A
O245      Ni2072   1.916   1_455  S
O245        C250   1.281       .  A
O246       Ni248   1.918       .  S
O246        C249   1.282       .  A
Ni247      O2063   1.914   1_455  S
Ni247     Ni2072   2.385   1_455  S
Ni248      O2069   1.916       .  S
Ni248     Ni2071   2.385       .  S
C249        C412   1.486       .  S
C250        C421   1.485       .  S
C251       O2068   1.282       .  A
C251        C700   1.487       .  S
C252       O2067   1.281       .  A
C252        C433   1.474       .  S
O253       Ni261   1.915       .  S
O253       C1175   1.282   1_545  A
O254       Ni261   1.916       .  S
O254       C1176   1.282   1_545  A
O255       Ni261   1.912       .  S
O255       C1177   1.282   1_545  A
O256       Ni261   1.914       .  S
O256       C1178   1.280   1_545  A
O257       Ni262   1.912       .  S
O257        C266   1.281       .  A
O258       Ni262   1.916       .  S
O258        C265   1.281       .  A
O259       Ni262   1.915       .  S
O259        C264   1.281       .  A
O260       Ni262   1.918       .  S
O260        C263   1.282       .  A
Ni261     Ni1174   2.385   1_545  S
Ni262     Ni1173   2.385       .  S
C263       O1165   1.282       .  A
C263        C457   1.485       .  S
C264       O1166   1.282       .  A
C264        C448   1.486       .  S
C265       O1167   1.282       .  A
C265        C688   1.485       .  S
C266       O1168   1.280       .  A
C266        C397   1.476       .  S
O267       Ni275   1.912       .  S
O267        C277   1.281       .  A
O268       Ni275   1.917       .  S
O268        C278   1.281       .  A
O269       Ni275   1.921       .  S
O269        C279   1.283       .  A
O270       Ni275   1.916       .  S
O270        C280   1.281       .  A
O271       Ni276   1.912       .  S
O271        C280   1.280       .  A
O272       Ni276   1.913       .  S
O272        C279   1.280       .  A
O273       Ni276   1.915       .  S
O273        C278   1.282       .  A
O274       Ni276   1.920       .  S
O274        C277   1.282       .  A
Ni275      Ni276   2.385       .  S
C277        C409   1.486       .  S
C278        C424   1.485       .  S
C279        C676   1.488       .  S
C280        C385   1.474       .  S
O281       Ni289   1.914       .  S
O281       C1203   1.281       .  A
O282       Ni289   1.914       .  S
O282        C292   1.280   1_455  A
O283      Ni1201   1.918   1_545  S
O283        C293   1.282       .  A
O284      Ni2113   1.916       .  S
O284        C294   1.283       .  A
O285      Ni1202   1.915       .  S
O285        C294   1.280       .  A
O286      Ni2114   1.910   1_455  S
O286        C293   1.280       .  A
O287       Ni290   1.920       .  S
O287       C3028   1.282       .  A
O288       Ni290   1.919       .  S
O288       C2115   1.282       .  A
Ni289      O1195   1.918       .  S
Ni289      O2108   1.916   1_455  S
Ni289     Ni3026   2.385   1_455  S
Ni290      O1197   1.915   1_545  S
Ni290      O2110   1.910       .  S
Ni290     Ni3025   2.385   1_545  S
C291       O1193   1.281   1_545  A
C291       O2112   1.282   1_455  A
C291       C1480   1.482       .  S
C292       O3023   1.282       .  A
C292        C472   1.476       .  S
C293        C373   1.485       .  S
C294        C361   1.486       .  S
O295       Ni303   1.914       .  S
O295        C305   1.281       .  A
O296      Ni2127   1.916       .  S
O296        C306   1.282       .  A
O297       Ni303   1.915       .  S
O297        C307   1.281   1_455  A
O298       Ni303   1.914       .  S
O298        C308   1.281   1_455  A
O299       Ni304   1.914       .  S
O299       C2132   1.281       .  A
O300       Ni304   1.913       .  S
O300       C2131   1.281       .  A
O301       Ni304   1.913       .  S
O301        C306   1.281       .  A
O302      Ni2128   1.914   1_455  S
O302        C305   1.281       .  A
Ni303      O2120   1.916   1_455  S
Ni303     Ni2128   2.385   1_455  S
Ni304      O2126   1.914       .  S
Ni304     Ni2127   2.385       .  S
C305        C352   1.485       .  S
C306        C340   1.485       .  S
C307       O2124   1.281       .  A
C307        C436   1.480       .  S
C308       O2123   1.281       .  A
C308        C532   1.480       .  S
O309       Ni317   1.912       .  S
O309        C319   1.281       .  A
O310      Ni1229   1.912   1_545  S
O310        C320   1.280       .  A
O311       Ni317   1.919       .  S
O311       C1233   1.283       .  A
O312       Ni317   1.917       .  S
O312       C1234   1.282       .  A
O313       Ni318   1.913       .  S
O313        C322   1.280       .  A
O314       Ni318   1.913       .  S
O314        C321   1.280       .  A
O315       Ni318   1.914       .  S
O315        C320   1.282       .  A
O316      Ni1230   1.919       .  S
O316        C319   1.282       .  A
Ni317      O1222   1.912       .  S
Ni317     Ni1230   2.384       .  S
Ni318      O1228   1.919   1_545  S
Ni318     Ni1229   2.384   1_545  S
C319        C349   1.486       .  S
C320        C337   1.484       .  S
C321       O1223   1.283   1_545  A
C321        C493   1.488       .  S
C322       O1224   1.282   1_545  A
C322       C1312   1.478       .  S
O323       Ni331   1.913       .  S
O323        C333   1.280       .  A
O324       Ni331   1.914       .  S
O324        C334   1.281       .  A
O325       Ni331   1.917       .  S
O325        C335   1.281       .  A
O326       Ni331   1.916       .  S
O326        C336   1.282       .  A
O327       Ni332   1.912       .  S
O327        C336   1.280       .  A
O328       Ni332   1.911       .  S
O328        C335   1.281       .  A
O329       Ni332   1.916       .  S
O329        C334   1.282       .  A
O330       Ni332   1.915       .  S
O330        C333   1.282       .  A
Ni331      Ni332   2.384       .  S
C333        C376   1.485       .  S
C334        C364   1.486       .  S
C335        C484   1.485       .  S
C336        C388   1.479       .  S
C337        C338   1.404       .  A
C337        C342   1.413       .  A
C338        C339   1.397       .  A
C338        H343   1.083       .  S
C339        C340   1.412       .  A
C339        O344   1.372       .  S
C340        C341   1.406       .  A
C341        C342   1.400       .  A
C341        H345   1.083       .  S
C342        O346   1.372       .  S
O344        H348   0.992       .  S
O346        H347   0.992       .  S
C349        C350   1.406       .  A
C349        C354   1.412       .  A
C350        C351   1.398       .  A
C350        H355   1.083       .  S
C351        C352   1.412       .  A
C351        O356   1.372       .  S
C352        C353   1.406       .  A
C353        C354   1.400       .  A
C353        H357   1.083       .  S
C354        O358   1.371       .  S
O356        H360   0.992       .  S
O358        H359   0.992       .  S
C361        C362   1.405       .  A
C361        C366   1.413       .  A
C362        C363   1.397       .  A
C362        H367   1.083       .  S
C363        C364   1.412       .  A
C363        O368   1.371       .  S
C364        C365   1.406       .  A
C365        C366   1.400       .  A
C365        H369   1.083       .  S
C366        O370   1.372       .  S
O368        H372   0.992       .  S
O370        H371   0.992       .  S
C373        C374   1.406       .  A
C373        C378   1.413       .  A
C374        C375   1.400       .  A
C374        H379   1.083       .  S
C375        C376   1.413       .  A
C375        O380   1.372       .  S
C376        C377   1.404       .  A
C377        C378   1.397       .  A
C377        H381   1.083       .  S
C378        O382   1.372       .  S
O380        H384   0.992       .  S
O382        H383   0.992       .  S
C385        C386   1.404       .  A
C385        C390   1.408       .  A
C386        C387   1.399       .  A
C386        H391   1.084       .  S
C387        C388   1.412       .  A
C387        O392   1.372       .  S
C388        C389   1.405       .  A
C389        C390   1.397       .  A
C389        H393   1.083       .  S
C390        O394   1.372       .  S
O392        H396   0.992       .  S
O394        H395   0.992       .  S
C397        C398   1.404       .  A
C397       C1314   1.409       .  A
C398        C399   1.400       .  A
C398        H403   1.084       .  S
C399        C400   1.412       .  A
C399        O404   1.372       .  S
C400       C1234   1.478       .  S
C400       C1313   1.403       .  A
C401        C402   1.397       .  A
C401       C1312   1.403   1_565  A
C401        H405   1.084       .  S
C402       C1309   1.409   1_565  A
C402        O406   1.372       .  S
O404        H408   0.992       .  S
O406        H407   0.992       .  S
C409        C410   1.406       .  A
C409        C414   1.412       .  A
C410        C411   1.398       .  A
C410        H415   1.083       .  S
C411        C412   1.411       .  A
C411        O416   1.372       .  S
C412        C413   1.407       .  A
C413        C414   1.401       .  A
C413        H417   1.083       .  S
C414        O418   1.372       .  S
O416        H420   0.992       .  S
O418        H419   0.992       .  S
C421        C422   1.407       .  A
C421        C426   1.411       .  A
C422        C423   1.402       .  A
C422        H427   1.083       .  S
C423        C424   1.413       .  A
C423        O428   1.372       .  S
C424        C425   1.404       .  A
C425        C426   1.397       .  A
C425        H429   1.083       .  S
C426        O430   1.371       .  S
O428        H432   0.992       .  S
O430        H431   0.992       .  S
C433        C438   1.408   1_655  A
C433       C2258   1.402       .  A
C434        C435   1.399       .  A
C434       C2257   1.402       .  A
C434        H439   1.084       .  S
C435       C2260   1.412       .  A
C435        O440   1.372       .  S
C436        C437   1.405   1_655  A
C436       C2259   1.412       .  A
C437        C438   1.399       .  A
C437        H441   1.083       .  S
C438        O442   1.372       .  S
O440        H444   0.992       .  S
O442        H443   0.992   1_455  S
C445        C446   1.406       .  A
C445       C1362   1.413       .  A
C446        C447   1.400       .  A
C446        H451   1.083       .  S
C447        C448   1.412       .  A
C447        O452   1.372       .  S
C448       C1361   1.406       .  A
C449        C450   1.400       .  A
C449       C1360   1.406   1_545  A
C449        H453   1.083       .  S
C450       C1357   1.413       .  A
C450        O454   1.372       .  S
O452        H456   0.992       .  S
O454        H455   0.992       .  S
C457        C462   1.412       .  A
C457       C1370   1.406       .  A
C458        C459   1.399       .  A
C458       C1369   1.406   1_545  A
C458        H463   1.083       .  S
C459       C1372   1.412       .  A
C459        O464   1.372       .  S
C460        C461   1.406       .  A
C460       C1371   1.412       .  A
C461        C462   1.400       .  A
C461        H465   1.083       .  S
C462        O466   1.372       .  S
O464        H468   0.992       .  S
O466        H467   0.992       .  S
C469        C470   1.406       .  A
C469       C3210   1.414   1_655  A
C470        C471   1.401       .  A
C470        H475   1.083       .  S
C471        C472   1.408       .  A
C471        O476   1.372       .  S
C472       C3209   1.402   1_655  A
C473        C474   1.400       .  A
C473       C3208   1.402       .  A
C473        H477   1.084       .  S
C474       C3205   1.414       .  A
C474        O478   1.371       .  S
O476        H480   0.992   1_655  S
O478        H479   0.992       .  S
C481        C482   1.406       .  A
C481        C486   1.412       .  A
C482        C483   1.399       .  A
C482        H487   1.083       .  S
C483        C484   1.412       .  A
C483        O488   1.371       .  S
C484        C485   1.406       .  A
C485        C486   1.397       .  A
C485        H489   1.083       .  S
C486        O490   1.372       .  S
O488        H492   0.992       .  S
O490        H491   0.992       .  S
C493        C494   1.406   1_545  A
C493       C1410   1.413       .  A
C494        C495   1.400       .  A
C494        H499   1.083       .  S
C495       C1408   1.413   1_565  A
C495        O500   1.371       .  S
C496        C497   1.405       .  A
C496       C1407   1.413       .  A
C497        C498   1.399       .  A
C497        H501   1.083       .  S
C498       C1405   1.413       .  A
C498        O502   1.372       .  S
O500        H504   0.992       .  S
O502        H503   0.992       .  S
C505        C506   1.405       .  A
C505        C510   1.413       .  A
C506        C507   1.398       .  A
C506        H511   1.083       .  S
C507        C508   1.413       .  A
C507        O512   1.372       .  S
C508        C509   1.405       .  A
C509        C510   1.399       .  A
C509        H513   1.083       .  S
C510        O514   1.372       .  S
O512        H516   0.992       .  S
O514        H515   0.992       .  S
C517        C518   1.407       .  A
C517        C522   1.411       .  A
C518        C519   1.399       .  A
C518        H523   1.083       .  S
C519        C520   1.411       .  A
C519        O524   1.372       .  S
C520        C521   1.407       .  A
C521        C522   1.398       .  A
C521        H525   1.083       .  S
C522        O526   1.372       .  S
O524        H528   0.992       .  S
O526        H527   0.992       .  S
C529        C530   1.404   1_655  A
C529       C2358   1.411       .  A
C530        C531   1.398       .  A
C530        H535   1.083       .  S
C531        C532   1.411   1_455  A
C531        O536   1.372       .  S
C532       C2357   1.405       .  A
C533        C534   1.399       .  A
C533       C2356   1.405       .  A
C533        H537   1.084       .  S
C534       C2353   1.411       .  A
C534        O538   1.372       .  S
O536        H540   0.992       .  S
O538        H539   0.992       .  S
C541        C542   1.407       .  A
C541        C546   1.411       .  A
C542        C543   1.399       .  A
C542        H547   1.083       .  S
C543        C544   1.411       .  A
C543        O548   1.372       .  S
C544        C545   1.407       .  A
C545        C546   1.400       .  A
C545        H549   1.083       .  S
C546        O550   1.372       .  S
O548        H552   0.992       .  S
O550        H551   0.992       .  S
C553        C554   1.407       .  A
C553        C558   1.411       .  A
C554        C555   1.399       .  A
C554        H559   1.083       .  S
C555        C556   1.411       .  A
C555        O560   1.372       .  S
C556        C557   1.406       .  A
C557        C558   1.398       .  A
C557        H561   1.083       .  S
C558        O562   1.372       .  S
O560        H564   0.992       .  S
O562        H563   0.992       .  S
C565       C2390   1.404   1_455  A
C565       C1482   1.411       .  A
C566        C567   1.398       .  A
C566       C2389   1.404       .  A
C566        H571   1.083       .  S
C567       C2392   1.410       .  A
C567        O572   1.371       .  S
C568       C1203   1.482       .  S
C568       C2391   1.410   1_455  A
C568       C1481   1.406       .  A
C569        C570   1.400       .  A
C569       C1480   1.406   1_565  A
C569        H573   1.084       .  S
C570       C1477   1.411   1_565  A
C570        O574   1.372       .  S
O572        H576   0.992       .  S
O574        H575   0.992   1_565  S
C577        C578   1.401       .  A
C577        C582   1.404       .  A
C578        C579   1.397   1_554  A
C578        H583   1.084       .  S
C579        C580   1.412       .  A
C579        O584   1.372       .  S
C580        C581   1.407       .  A
C581        C582   1.397   1_556  A
C581        H585   1.083       .  S
C582        O586   1.372       .  S
O584        H588   0.992       .  S
O586        H587   0.992       .  S
C589        C590   1.405       .  A
C589        C594   1.413       .  A
C590        C591   1.399       .  A
C590        H595   1.083       .  S
C591        C592   1.412       .  A
C591        O596   1.371       .  S
C592        C593   1.406       .  A
C593        C594   1.399       .  A
C593        H597   1.083       .  S
C594        O598   1.372       .  S
O596        H600   0.992       .  S
O598        H599   0.992       .  S
C601        C602   1.405       .  A
C601        C606   1.413       .  A
C602        C603   1.399       .  A
C602        H607   1.083       .  S
C603        C604   1.412       .  A
C603        O608   1.372       .  S
C604        C605   1.405       .  A
C605        C606   1.399       .  A
C605        H609   1.083       .  S
C606        O610   1.372       .  S
O608        H612   0.992       .  S
O610        H611   0.992       .  S
C613        C618   1.410       .  A
C613       C1526   1.405       .  A
C614        C615   1.400   1_556  A
C614       C1525   1.405       .  A
C614        H619   1.084       .  S
C615       C1528   1.408       .  A
C615        O620   1.371       .  S
C616        C617   1.405       .  A
C616       C1527   1.408       .  A
C617        C618   1.399   1_554  A
C617        H621   1.084       .  S
C618        O622   1.372       .  S
O620        H624   0.992       .  S
O622        H623   0.992       .  S
C625        C626   1.402       .  A
C625       C2454   1.408   1_455  A
C626        C627   1.399   1_556  A
C626        H631   1.084       .  S
C627        C628   1.412       .  A
C627        O632   1.371       .  S
C628       C2453   1.407   1_455  A
C629        C630   1.400   1_554  A
C629       C2452   1.407       .  A
C629        H633   1.083       .  S
C630       C2449   1.408       .  A
C630        O634   1.372       .  S
O632        H636   0.992       .  S
O634        H635   0.992       .  S
C637       C1948   1.484   1_655  S
C637        C638   1.405   1_655  A
C637       C2466   1.412       .  A
C638        C639   1.398       .  A
C638        H643   1.083       .  S
C639        C640   1.412       .  A
C639        O644   1.372       .  S
C640       C2465   1.405   1_455  A
C641        C642   1.398       .  A
C641       C2464   1.405       .  A
C641        H645   1.083       .  S
C642       C2461   1.412       .  A
C642        O646   1.372       .  S
O644        H648   0.992       .  S
O646        H647   0.992       .  S
C649        C650   1.406   1_655  A
C649       C2478   1.412       .  A
C650        C651   1.399       .  A
C650        H655   1.083       .  S
C651        C652   1.412       .  A
C651        O656   1.372       .  S
C652       C1947   1.486       .  S
C652       C2477   1.406   1_455  A
C653        C654   1.399       .  A
C653       C2476   1.406       .  A
C653        H657   1.083       .  S
C654       C2473   1.412       .  A
C654        O658   1.372       .  S
O656        H660   0.992       .  S
O658        H659   0.992       .  S
C661       C2486   1.403       .  A
C661       C1578   1.408       .  A
C662        C663   1.400   1_554  A
C662       C2485   1.403       .  A
C662        H667   1.084       .  S
C663        C664   1.412       .  A
C663        O668   1.372       .  S
C664       C3401   1.405   1_455  A
C665        C666   1.398   1_546  A
C665       C3400   1.405   1_545  A
C665        H669   1.083       .  S
C666       C1573   1.408       .  A
C666        O670   1.372   1_565  S
O668        H672   0.992       .  S
O670        H671   0.992       .  S
C673        C674   1.405       .  A
C673        C678   1.413       .  A
C674        C675   1.399       .  A
C674        H679   1.083       .  S
C675        C676   1.413       .  A
C675        O680   1.372       .  S
C676        C677   1.406       .  A
C677        C678   1.401       .  A
C677        H681   1.083       .  S
C678        O682   1.371       .  S
O680        H684   0.992       .  S
O682        H683   0.992       .  S
C685        C686   1.407       .  A
C685       C1602   1.411       .  A
C686        C687   1.400       .  A
C686        H691   1.083       .  S
C687        C688   1.412       .  A
C687        O692   1.372       .  S
C688       C1601   1.405       .  A
C689        C690   1.396       .  A
C689       C1600   1.405   1_545  A
C689        H693   1.083       .  S
C690       C1597   1.411       .  A
C690        O694   1.372       .  S
O692        H696   0.992       .  S
O694        H695   0.992       .  S
C697        C702   1.412       .  A
C697       C2522   1.406   1_455  A
C698        C699   1.399       .  A
C698       C2521   1.406       .  A
C698        H703   1.083       .  S
C699       C2524   1.412       .  A
C699        O704   1.372       .  S
C700        C701   1.407   1_655  A
C700       C2523   1.412       .  A
C701        C702   1.401       .  A
C701        H705   1.083       .  S
C702        O706   1.372       .  S
O704        H708   0.992       .  S
O706        H707   0.992       .  S
C709        C710   1.406       .  A
C709        C714   1.413       .  A
C710        C711   1.399       .  A
C710        H715   1.083       .  S
C711        C712   1.412       .  A
C711        O716   1.372       .  S
C712        C713   1.407       .  A
C713        C714   1.401       .  A
C713        H717   1.083       .  S
C714        O718   1.372       .  S
O716        H720   0.992       .  S
O718        H719   0.992       .  S
C721        C722   1.404       .  A
C721        C726   1.412       .  A
C722        C723   1.398       .  A
C722        H727   1.083       .  S
C723        C724   1.412       .  A
C723        O728   1.372       .  S
C724        C725   1.405       .  A
C725        C726   1.401       .  A
C725        H729   1.084       .  S
C726        O730   1.372       .  S
O728        H732   0.992       .  S
O730        H731   0.992       .  S
C733       C1646   1.404       .  A
C733       C2562   1.412   1_455  A
C734        C735   1.398       .  A
C734       C1645   1.404       .  A
C734        H739   1.084       .  S
C735       C1648   1.412       .  A
C735        O740   1.372       .  S
C736       C1647   1.412       .  A
C736       C2561   1.406   1_455  A
C737        C738   1.402       .  A
C737       C2560   1.406       .  A
C737        H741   1.083       .  S
C738       C2557   1.412       .  A
C738        O742   1.372       .  S
O740        H744   0.992       .  S
O742        H743   0.992       .  S
C745        C746   1.407       .  A
C745       C1662   1.411       .  A
C746        C747   1.400       .  A
C746        H751   1.083       .  S
C747        C748   1.411       .  A
C747        O752   1.372       .  S
C748       C1661   1.407       .  A
C749        C750   1.398       .  A
C749       C1660   1.407       .  A
C749        H753   1.083       .  S
C750       C1657   1.411       .  A
C750        O754   1.372       .  S
O752        H756   0.992       .  S
O754        H755   0.992       .  S
C757        C762   1.412       .  A
C757       C1670   1.406       .  A
C758        C759   1.400       .  A
C758       C1669   1.406       .  A
C758        H763   1.083       .  S
C759       C1672   1.413       .  A
C759        O764   1.372       .  S
C760        C761   1.404       .  A
C760       C1671   1.413       .  A
C761        C762   1.398       .  A
C761        H765   1.083       .  S
C762        O766   1.372       .  S
O764        H768   0.992       .  S
O766        H767   0.992       .  S
C769        C770   1.408       .  A
C769        C774   1.410       .  A
C770        C771   1.401       .  A
C770        H775   1.083       .  S
C771        C772   1.411       .  A
C771        O776   1.372       .  S
C772        C773   1.405       .  A
C773        C774   1.395       .  A
C773        H777   1.083       .  S
C774        O778   1.372       .  S
O776        H780   0.992       .  S
O778        H779   0.992       .  S
C781        C782   1.404       .  A
C781        C786   1.411       .  A
C782        C783   1.401       .  A
C782        H787   1.084       .  S
C783        C784   1.411       .  A
C783        O788   1.371       .  S
C784        C785   1.404       .  A
C785        C786   1.401       .  A
C785        H789   1.084       .  S
C786        O790   1.372       .  S
O788        H792   0.992       .  S
O790        H791   0.992       .  S
C793        C794   1.407       .  A
C793        C798   1.411       .  A
C794        C795   1.400       .  A
C794        H799   1.083       .  S
C795        C796   1.412       .  A
C795        O800   1.372       .  S
C796        C797   1.406       .  A
C797        C798   1.397       .  A
C797        H801   1.083       .  S
C798        O802   1.372       .  S
O800        H804   0.992       .  S
O802        H803   0.992       .  S
C805        C806   1.407       .  A
C805        C810   1.411       .  A
C806        C807   1.400       .  A
C806        H811   1.083       .  S
C807        C808   1.412       .  A
C807        O812   1.372       .  S
C808        C809   1.406       .  A
C809        C810   1.397       .  A
C809        H813   1.083       .  S
C810        O814   1.372       .  S
O812        H816   0.992       .  S
O814        H815   0.992       .  S
C817        C818   1.407       .  A
C817       C1734   1.412       .  A
C818        C819   1.401       .  A
C818        H823   1.083       .  S
C819        C820   1.411       .  A
C819        O824   1.371       .  S
C820       C1733   1.406       .  A
C821        C822   1.398       .  A
C821       C1732   1.406   1_545  A
C821        H825   1.083       .  S
C822       C1729   1.412   1_545  A
C822        O826   1.372       .  S
O824        H828   0.992       .  S
O826        H827   0.992   1_545  S
C829        C834   1.410       .  A
C829       C1742   1.403       .  A
C830        C831   1.399       .  A
C830       C1741   1.403       .  A
C830        H835   1.084       .  S
C831       C1744   1.411       .  A
C831        O836   1.372       .  S
C832        C833   1.404       .  A
C832       C1743   1.411       .  A
C833        C834   1.399       .  A
C833        H837   1.084       .  S
C834        O838   1.372       .  S
O836        H840   0.992       .  S
O838        H839   0.992       .  S
C841        C846   1.412       .  A
C841       C2666   1.405   1_455  A
C842        C843   1.398       .  A
C842       C2665   1.405       .  A
C842        H847   1.083       .  S
C843       C2668   1.412       .  A
C843        O848   1.372       .  S
C844        C845   1.406   1_655  A
C844       C2667   1.412       .  A
C845        C846   1.399       .  A
C845        H849   1.083       .  S
C846        O850   1.372       .  S
O848        H852   0.992       .  S
O850        H851   0.992       .  S
C853        C858   1.409   1_655  A
C853       C2678   1.405       .  A
C854        C855   1.400       .  A
C854       C2677   1.405       .  A
C854        H859   1.084       .  S
C855       C2680   1.411       .  A
C855        O860   1.372       .  S
C856        C857   1.404   1_655  A
C856       C2679   1.411       .  A
C857        C858   1.396       .  A
C857        H861   1.084       .  S
C858        O862   1.372       .  S
O860        H864   0.992       .  S
O862        H863   0.992       .  S
C865        C870   1.411       .  A
C865       C2690   1.407   1_455  A
C866        C867   1.402       .  A
C866       C2689   1.407       .  A
C866        H871   1.083       .  S
C867       C2692   1.411       .  A
C867        O872   1.372       .  S
C868        C869   1.405   1_655  A
C868       C2691   1.411       .  A
C869        C870   1.398       .  A
C869        H873   1.083       .  S
C870        O874   1.372       .  S
O872        H876   0.992       .  S
O874        H875   0.992       .  S
C877        C882   1.412       .  A
C877       C2702   1.405   1_455  A
C878        C879   1.397       .  A
C878       C2701   1.405       .  A
C878        H883   1.083       .  S
C879       C2704   1.411       .  A
C879        O884   1.372       .  S
C880        C881   1.406       .  A
C880       C2703   1.411   1_455  A
C881        C882   1.401       .  A
C881        H885   1.083       .  S
C882        O886   1.372       .  S
O884        H888   0.992       .  S
O886        H887   0.992       .  S
C889       C2714   1.404       .  A
C889       C1806   1.410       .  A
C890        C891   1.398       .  A
C890       C2713   1.404   1_455  A
C890        H895   1.084       .  S
C891       C2716   1.410       .  A
C891        O896   1.372       .  S
C892       C2715   1.410       .  A
C892       C1805   1.406       .  A
C893        C894   1.403       .  A
C893       C1804   1.406       .  A
C893        H897   1.084       .  S
C894       C1801   1.410       .  A
C894        O898   1.372       .  S
O896        H900   0.992       .  S
O898        H899   0.992       .  S
C901        C906   1.405       .  A
C901       C3638   1.401       .  A
C902        C903   1.402       .  A
C902       C3637   1.401       .  A
C902        H907   1.084       .  S
C903       C3640   1.416       .  A
C903        O908   1.372       .  S
C904        C905   1.406       .  A
C904       C3639   1.416       .  A
C905        C906   1.396       .  A
C905        H909   1.083       .  S
C906        O910   1.372       .  S
O908        H912   0.992       .  S
O910        H911   0.992       .  S
O913       Ni921   1.913       .  S
O913       C2747   1.281       .  A
O914       C2748   1.282       .  A
O915       Ni921   1.921       .  S
O915        C925   1.282       .  A
O916       Ni921   1.917       .  S
O916        C926   1.283   1_565  A
O917       Ni922   1.913       .  S
O917       C1838   1.280       .  A
O918       Ni922   1.911       .  S
O918       C1837   1.281       .  A
O919       Ni922   1.916       .  S
O919        C924   1.281       .  A
O920        C923   1.282       .  A
Ni921     Ni1834   2.385   1_565  S
Ni922     Ni1833   2.385   1_455  S
C923       O2737   1.281   1_455  A
C923       C1777   1.485       .  S
C924       O2738   1.282   1_455  A
C924       C1789   1.485       .  S
C925       O1830   1.281   1_565  A
C925       C1801   1.481       .  S
C926       O1829   1.280       .  A
C926       C1816   1.485       .  S
O927       Ni935   1.913       .  S
O927        C937   1.281       .  A
O928       Ni935   1.911       .  S
O928        C938   1.281   1_455  A
O929       Ni935   1.913       .  S
O929        C939   1.281   1_455  A
O930       Ni935   1.914       .  S
O930        C940   1.281       .  A
O931       Ni936   1.914       .  S
O931       C2764   1.281       .  A
O932       Ni936   1.913       .  S
O932       C2763   1.280       .  A
O933       Ni936   1.921       .  S
O933       C2762   1.282       .  A
O934       Ni936   1.915       .  S
O934       C2761   1.282       .  A
Ni935     Ni2760   2.385   1_455  S
Ni936     Ni2759   2.385       .  S
C937       O2758   1.282   1_455  A
C937       C1792   1.484       .  S
C938       O2757   1.282       .  A
C938       C1780   1.484       .  S
C939       O2756   1.280       .  A
C939       C1765   1.475       .  S
C940       O2755   1.281   1_455  A
C940       C1753   1.484       .  S
O941        C951   1.282       .  A
O942       Ni949   1.911       .  S
O942        C952   1.280       .  A
O943       Ni949   1.916       .  S
O943        C953   1.281   1_565  A
O944       Ni949   1.916       .  S
O944        C954   1.282   1_565  A
O945       Ni950   1.914       .  S
O946       Ni950   1.914       .  S
O947        C952   1.282       .  A
O948       Ni950   1.918       .  S
O948        C951   1.281       .  A
C951       C1720   1.486       .  S
C952       C1705   1.484       .  S
C953       C1744   1.479       .  S
C954       C1729   1.485   1_545  S
O955       Ni963   1.911       .  S
O955        C965   1.280       .  A
O956       Ni963   1.913       .  S
O956        C966   1.280       .  A
O957       Ni963   1.919       .  S
O957        C967   1.282       .  A
O958       Ni963   1.915       .  S
O958        C968   1.282       .  A
O959       Ni964   1.913       .  S
O959        C968   1.281       .  A
O960       Ni964   1.910       .  S
O960        C967   1.281       .  A
O961       Ni964   1.920       .  S
O961        C966   1.282       .  A
O962       Ni964   1.916       .  S
O962        C965   1.282       .  A
Ni963      Ni964   2.385       .  S
C965       C1681   1.483       .  S
C966       C1693   1.481       .  S
C967       C1708   1.484       .  S
C968       C1717   1.485       .  S
O969       Ni977   1.913       .  S
O969        C979   1.281   1_565  A
O970       Ni977   1.917       .  S
O970       C2804   1.281   1_565  A
O971       Ni977   1.909       .  S
O971        C981   1.280   1_565  A
O972      Ni2801   1.913   1_455  S
O972        C982   1.281   1_565  A
O973       Ni978   1.917       .  S
O974      Ni2802   1.920       .  S
O975       Ni978   1.917       .  S
O976       Ni978   1.917       .  S
O976       C1891   1.280       .  A
Ni977      O2796   1.913       .  S
Ni977     Ni1890   2.386   1_565  S
Ni978      O2798   1.920   1_455  S
Ni978     Ni1889   2.386   1_455  S
C979       O1888   1.280       .  A
C979       C1813   1.470       .  S
C980       O2794   1.281   1_445  A
C980       C1645   1.484       .  S
C981       C1657   1.485       .  S
C982       C1669   1.486       .  S
O983      Ni2815   1.916       .  S
O983        C993   1.282       .  A
O984       Ni991   1.913       .  S
O984        C994   1.280       .  A
O985       Ni991   1.914       .  S
O985        C995   1.281   1_455  A
O986       Ni991   1.916       .  S
O986        C996   1.281       .  A
O987       Ni992   1.914       .  S
O987       C2820   1.282       .  A
O988       Ni992   1.917       .  S
O988       C2819   1.281       .  A
O989      Ni2816   1.920   1_455  S
O989        C994   1.282       .  A
O990       Ni992   1.918       .  S
O990        C993   1.282       .  A
Ni991      O2807   1.916   1_455  S
Ni991     Ni2816   2.385   1_455  S
Ni992      O2813   1.920       .  S
Ni992     Ni2815   2.385       .  S
C993       C1624   1.488       .  S
C994       C1636   1.483       .  S
C995       O2812   1.281       .  A
C995       C1768   1.478       .  S
C996       O2811   1.282   1_455  A
C996       C1609   1.486       .  S
O997      Ni1005   1.921       .  S
O997       C1007   1.282   1_565  A
O998      Ni1005   1.918       .  S
O998       C1008   1.283   1_565  A
O999      Ni1005   1.912       .  S
O999       C1009   1.280   1_565  A
O1000     Ni1005   1.913       .  S
O1000      C1010   1.281   1_565  A
O1001     Ni1006   1.915       .  S
O1002     Ni1006   1.916       .  S
O1003     Ni1006   1.912       .  S
O1004     Ni1006   1.910       .  S
C1007      C1660   1.486       .  S
C1008      C1672   1.486       .  S
C1009      C1741   1.476       .  S
C1010      C1597   1.485       .  S
O1011     Ni1019   1.919       .  S
O1011      C1021   1.281       .  A
O1012     Ni1019   1.918       .  S
O1012      C1022   1.282       .  A
O1013     Ni1019   1.916       .  S
O1013      C1023   1.281       .  A
O1014     Ni1019   1.918       .  S
O1014      C1024   1.282       .  A
O1015     Ni1020   1.915       .  S
O1015      C1024   1.281       .  A
O1016     Ni1020   1.916       .  S
O1016      C1023   1.282       .  A
O1017     Ni1020   1.916       .  S
O1017      C1022   1.281       .  A
O1018     Ni1020   1.921       .  S
O1018      C1021   1.282       .  A
Ni1019    Ni1020   2.384       .  S
C1021      C1696   1.483       .  S
C1022      C1585   1.488       .  S
C1023      C1621   1.488       .  S
C1024      C1633   1.482       .  S
O1025      C1035   1.281       .  A
O1026     Ni1033   1.912       .  S
O1026      C1036   1.280       .  A
O1027     Ni1033   1.919       .  S
O1027      C1037   1.282       .  A
O1028     Ni1033   1.917       .  S
O1028      C1038   1.281       .  A
O1029     Ni1034   1.914       .  S
O1029      C1950   1.280       .  A
O1030     Ni1034   1.914       .  S
O1030      C1949   1.281       .  A
O1031      C2860   1.282       .  A
O1032     Ni1034   1.917       .  S
O1032      C2859   1.282       .  A
Ni1033    Ni1946   2.385   1_565  S
Ni1034    Ni1945   2.385   1_455  S
C1035      O2856   1.282       .  A
C1035      C3388   1.486       .  S
C1036      O2855   1.282       .  A
C1036      C3373   1.484       .  S
C1037      O1942   1.281   1_565  A
C1037      C1804   1.482       .  S
C1038      O1941   1.280   1_565  A
C1038      C1573   1.476       .  S
O1039     Ni1047   1.912       .  S
O1039      C1049   1.280       .  A
O1040     Ni1047   1.913       .  S
O1040      C1050   1.281   1_455  A
O1041     Ni1047   1.914       .  S
O1041      C1051   1.281       .  A
O1042     Ni1047   1.914       .  S
O1042      C1052   1.281   1_455  A
O1043     Ni1048   1.916       .  S
O1043      C2876   1.281       .  A
O1044     Ni1048   1.916       .  S
O1044      C2875   1.282       .  A
O1045     Ni1048   1.917       .  S
O1045      C2874   1.282       .  A
O1046     Ni1048   1.913       .  S
O1046      C2873   1.282       .  A
Ni1047    Ni2872   2.384   1_455  S
Ni1048    Ni2871   2.384       .  S
C1049      O2870   1.282   1_455  A
C1049      C1552   1.483       .  S
C1050      O2869   1.282       .  A
C1050      C1561   1.486       .  S
C1051      O2868   1.282   1_455  A
C1051      C1540   1.483       .  S
C1052      O2867   1.281       .  A
C1052      C1756   1.484       .  S
O1053     Ni1061   1.909       .  S
O1054     Ni1061   1.907       .  S
O1055     Ni1061   1.920       .  S
O1055      C1065   1.283       .  A
O1056      C1066   1.282       .  A
O1057     Ni1062   1.912       .  S
O1057      C1066   1.280       .  A
O1058      C1065   1.280       .  A
O1059     Ni1062   1.922       .  S
O1059      C1064   1.283       .  A
O1060     Ni1062   1.923       .  S
O1060      C1063   1.283       .  A
C1063      C1732   1.486       .  S
C1064      C1528   1.478       .  S
C1065      C1513   1.485       .  S
C1066      C1501   1.485       .  S
O1067     Ni1075   1.917       .  S
O1067      C1077   1.282       .  A
O1068     Ni1075   1.914       .  S
O1068      C1078   1.281       .  A
O1069     Ni1075   1.903       .  S
O1069      C1079   1.278       .  A
O1070     Ni1075   1.904       .  S
O1070      C1080   1.280       .  A
O1071     Ni1076   1.920       .  S
O1071      C1080   1.282       .  A
O1072     Ni1076   1.916       .  S
O1072      C1079   1.281       .  A
O1073     Ni1076   1.916       .  S
O1073      C1078   1.282       .  A
O1074     Ni1076   1.912       .  S
O1074      C1077   1.281       .  A
Ni1075    Ni1076   2.387       .  S
C1077      C1504   1.485       .  S
C1078      C1516   1.483       .  S
C1079      C1489   1.465       .  S
C1080      C1684   1.482       .  S
O1081     Ni1089   1.913       .  S
O1081      C2003   1.281       .  A
O1082     Ni1089   1.915       .  S
O1082      C2004   1.282       .  A
O1083     Ni2913   1.912   1_455  S
O1083      C1093   1.281       .  A
O1084      C1094   1.281       .  A
O1085     Ni2914   1.921       .  S
O1085      C1094   1.283       .  A
O1086      C1093   1.281       .  A
O1087     Ni1090   1.916       .  S
O1087      C1092   1.281       .  A
O1088     Ni1090   1.916       .  S
O1088      C1091   1.281   1_565  A
Ni1089     O2907   1.912       .  S
Ni1089    Ni2002   2.385       .  S
Ni1090     O2909   1.921   1_455  S
Ni1090    Ni2001   2.385   1_465  S
C1091      O1993   1.281   1_455  A
C1091      C1477   1.480       .  S
C1092      O1994   1.282   1_465  A
C1092      C1576   1.481       .  S
C1093      C1465   1.485       .  S
C1094      C1453   1.486       .  S
O1095     Ni2927   1.921   1_455  S
O1095      C1105   1.283       .  A
O1096     Ni1103   1.916       .  S
O1096      C1106   1.282       .  A
O1097     Ni1103   1.915       .  S
O1097      C2931   1.280       .  A
O1098     Ni1103   1.913       .  S
O1098      C2932   1.280       .  A
O1099     Ni1104   1.916       .  S
O1099      C1108   1.282   1_455  A
O1100     Ni1104   1.916       .  S
O1100      C1107   1.281       .  A
O1101     Ni2928   1.912       .  S
O1101      C1106   1.280       .  A
O1102     Ni1104   1.908       .  S
O1102      C1105   1.280       .  A
Ni1103     O2919   1.921       .  S
Ni1103    Ni2928   2.386       .  S
Ni1104     O2925   1.912   1_455  S
Ni1104    Ni2927   2.386   1_455  S
C1105      C1432   1.485       .  S
C1106      C1417   1.485       .  S
C1107      O2921   1.280   1_455  A
C1107      C1537   1.475       .  S
C1108      O2922   1.280       .  A
C1108      C1441   1.480       .  S
O1109     Ni1117   1.919       .  S
O1109      C1119   1.282       .  A
O1110      C1120   1.282       .  A
O1111     Ni1117   1.916       .  S
O1111      C1121   1.281       .  A
O1112     Ni1117   1.916       .  S
O1112      C1122   1.281   1_565  A
O1113     Ni1118   1.918       .  S
O1114     Ni1118   1.917       .  S
O1115     Ni1118   1.911       .  S
O1115      C1120   1.280       .  A
O1116      C1119   1.280       .  A
C1119      C1429   1.485       .  S
C1120      C1420   1.485       .  S
C1121      C1525   1.480       .  S
C1122      C1408   1.488       .  S
O1123     Ni1131   1.912       .  S
O1123      C1133   1.281       .  A
O1124     Ni1131   1.911       .  S
O1124      C1134   1.281       .  A
O1125     Ni1131   1.915       .  S
O1125      C1135   1.282       .  A
O1126     Ni1131   1.913       .  S
O1126      C1136   1.281       .  A
O1127     Ni1132   1.910       .  S
O1127      C1136   1.280       .  A
O1128     Ni1132   1.911       .  S
O1128      C1135   1.280       .  A
O1129     Ni1132   1.918       .  S
O1129      C1134   1.282       .  A
O1130     Ni1132   1.920       .  S
O1130      C1133   1.282       .  A
Ni1131    Ni1132   2.384       .  S
C1133      C1456   1.486       .  S
C1134      C1468   1.485       .  S
C1135      C1393   1.484       .  S
C1136      C1492   1.480       .  S
O1137     Ni2969   1.916       .  S
O1138     Ni1145   1.915       .  S
O1139     Ni1145   1.913       .  S
O1140     Ni1145   1.914       .  S
O1141     Ni1146   1.922       .  S
O1141      C2974   1.283   1_565  A
O1142     Ni1146   1.923       .  S
O1142      C2973   1.283   1_565  A
O1143     Ni2970   1.916   1_455  S
O1143      C1148   1.282   1_565  A
O1144     Ni1146   1.917       .  S
O1144      C1147   1.282   1_565  A
Ni1145     O2961   1.916   1_455  S
Ni1145    Ni2058   2.384   1_455  S
Ni1146     O2967   1.916       .  S
Ni1146    Ni2057   2.384   1_565  S
C1147      C1357   1.487       .  S
C1148      C1372   1.485       .  S
C1149      O2966   1.283   1_545  A
C1149      C1648   1.485   1_655  S
C1150      O2965   1.283   1_545  A
C1150      C1381   1.486       .  S
O1151     Ni2983   1.914       .  S
O1151      C1161   1.281       .  A
O1152     Ni1159   1.914       .  S
O1152      C1162   1.281       .  A
O1153     Ni1159   1.917       .  S
O1153      C1163   1.282   1_455  A
O1154     Ni1159   1.914       .  S
O1154      C1164   1.281   1_455  A
O1155     Ni1160   1.914       .  S
O1155      C2988   1.281       .  A
O1156     Ni1160   1.917       .  S
O1156      C2987   1.282       .  A
O1157     Ni2984   1.916   1_455  S
O1157      C1162   1.281       .  A
O1158     Ni1160   1.918       .  S
O1158      C1161   1.282       .  A
Ni1159     O2975   1.914   1_455  S
Ni1159    Ni2984   2.385   1_455  S
Ni1160     O2981   1.916       .  S
Ni1160    Ni2983   2.385       .  S
C1161      C1324   1.486       .  S
C1162      C1333   1.485       .  S
C1163      O2980   1.282       .  A
C1163      C1612   1.487       .  S
C1164      O2979   1.281       .  A
C1164      C1345   1.474       .  S
O1165     Ni1173   1.915       .  S
O1166     Ni1173   1.916       .  S
O1167     Ni1173   1.912       .  S
O1168     Ni1173   1.914       .  S
O1169     Ni1174   1.912       .  S
O1169      C1178   1.281       .  A
O1170     Ni1174   1.916       .  S
O1170      C1177   1.281       .  A
O1171     Ni1174   1.915       .  S
O1171      C1176   1.281       .  A
O1172     Ni1174   1.918       .  S
O1172      C1175   1.282       .  A
C1175      C1369   1.485       .  S
C1176      C1360   1.486       .  S
C1177      C1600   1.485       .  S
C1178      C1309   1.476   1_565  S
O1179     Ni1187   1.912       .  S
O1179      C1189   1.281       .  A
O1180     Ni1187   1.917       .  S
O1180      C1190   1.281       .  A
O1181     Ni1187   1.921       .  S
O1181      C1191   1.283       .  A
O1182     Ni1187   1.916       .  S
O1182      C1192   1.281       .  A
O1183     Ni1188   1.912       .  S
O1183      C1192   1.280       .  A
O1184     Ni1188   1.913       .  S
O1184      C1191   1.280       .  A
O1185     Ni1188   1.915       .  S
O1185      C1190   1.282       .  A
O1186     Ni1188   1.920       .  S
O1186      C1189   1.282       .  A
Ni1187    Ni1188   2.385       .  S
C1189      C1321   1.486       .  S
C1190      C1336   1.485       .  S
C1191      C1588   1.488       .  S
C1192      C1297   1.474       .  S
O1193     Ni1201   1.914       .  S
O1194     Ni1201   1.914       .  S
O1194      C1204   1.280   1_465  A
O1195      C1205   1.282       .  A
O1196     Ni3025   1.916       .  S
O1196      C1206   1.283       .  A
O1197      C1206   1.280       .  A
O1198     Ni3026   1.910   1_455  S
O1198      C1205   1.280       .  A
O1199     Ni1202   1.920       .  S
O1199      C2116   1.282       .  A
O1200     Ni1202   1.919       .  S
O1200      C3027   1.282       .  A
Ni1201     O3020   1.916   1_455  S
Ni1201    Ni2114   2.385   1_465  S
Ni1202     O3022   1.910       .  S
Ni1202    Ni2113   2.385       .  S
C1203      O3024   1.282   1_455  A
C1204      O2111   1.282       .  A
C1204      C1384   1.476       .  S
C1205      C1285   1.485       .  S
C1206      C1273   1.486       .  S
O1207     Ni1215   1.914       .  S
O1207      C1217   1.281       .  A
O1208     Ni3039   1.916       .  S
O1208      C1218   1.282       .  A
O1209     Ni1215   1.915       .  S
O1209      C1219   1.281   1_455  A
O1210     Ni1215   1.914       .  S
O1210      C1220   1.281   1_455  A
O1211     Ni1216   1.914       .  S
O1211      C3044   1.281       .  A
O1212     Ni1216   1.913       .  S
O1212      C3043   1.281       .  A
O1213     Ni1216   1.913       .  S
O1213      C1218   1.281       .  A
O1214     Ni3040   1.914   1_455  S
O1214      C1217   1.281       .  A
Ni1215     O3032   1.916   1_455  S
Ni1215    Ni3040   2.385   1_455  S
Ni1216     O3038   1.914       .  S
Ni1216    Ni3039   2.385       .  S
C1217      C1264   1.485       .  S
C1218      C1252   1.485       .  S
C1219      O3036   1.281       .  A
C1219      C1348   1.480       .  S
C1220      O3035   1.281       .  A
C1220      C1444   1.480       .  S
O1221     Ni1229   1.912       .  S
O1221      C1231   1.281       .  A
O1222      C1232   1.280       .  A
O1223     Ni1229   1.919       .  S
O1224     Ni1229   1.917       .  S
O1225     Ni1230   1.913       .  S
O1225      C1234   1.280       .  A
O1226     Ni1230   1.913       .  S
O1226      C1233   1.280       .  A
O1227     Ni1230   1.914       .  S
O1227      C1232   1.282       .  A
O1228      C1231   1.282       .  A
C1231      C1261   1.486       .  S
C1232      C1249   1.484       .  S
C1233      C1405   1.488       .  S
O1235     Ni1243   1.913       .  S
O1235      C1245   1.280       .  A
O1236     Ni1243   1.914       .  S
O1236      C1246   1.281       .  A
O1237     Ni1243   1.917       .  S
O1237      C1247   1.281       .  A
O1238     Ni1243   1.916       .  S
O1238      C1248   1.282       .  A
O1239     Ni1244   1.912       .  S
O1239      C1248   1.280       .  A
O1240     Ni1244   1.911       .  S
O1240      C1247   1.281       .  A
O1241     Ni1244   1.916       .  S
O1241      C1246   1.282       .  A
O1242     Ni1244   1.915       .  S
O1242      C1245   1.282       .  A
Ni1243    Ni1244   2.384       .  S
C1245      C1288   1.485       .  S
C1246      C1276   1.486       .  S
C1247      C1396   1.485       .  S
C1248      C1300   1.479       .  S
C1249      C1250   1.404       .  A
C1249      C1254   1.413       .  A
C1250      C1251   1.397       .  A
C1250      H1255   1.083       .  S
C1251      C1252   1.412       .  A
C1251      O1256   1.372       .  S
C1252      C1253   1.406       .  A
C1253      C1254   1.400       .  A
C1253      H1257   1.083       .  S
C1254      O1258   1.372       .  S
O1256      H1260   0.992       .  S
O1258      H1259   0.992       .  S
C1261      C1262   1.406       .  A
C1261      C1266   1.412       .  A
C1262      C1263   1.398       .  A
C1262      H1267   1.083       .  S
C1263      C1264   1.412       .  A
C1263      O1268   1.372       .  S
C1264      C1265   1.406       .  A
C1265      C1266   1.400       .  A
C1265      H1269   1.083       .  S
C1266      O1270   1.371       .  S
O1268      H1272   0.992       .  S
O1270      H1271   0.992       .  S
C1273      C1274   1.405       .  A
C1273      C1278   1.413       .  A
C1274      C1275   1.397       .  A
C1274      H1279   1.083       .  S
C1275      C1276   1.412       .  A
C1275      O1280   1.371       .  S
C1276      C1277   1.406       .  A
C1277      C1278   1.400       .  A
C1277      H1281   1.083       .  S
C1278      O1282   1.372       .  S
O1280      H1284   0.992       .  S
O1282      H1283   0.992       .  S
C1285      C1286   1.406       .  A
C1285      C1290   1.413       .  A
C1286      C1287   1.400       .  A
C1286      H1291   1.083       .  S
C1287      C1288   1.413       .  A
C1287      O1292   1.372       .  S
C1288      C1289   1.404       .  A
C1289      C1290   1.397       .  A
C1289      H1293   1.083       .  S
C1290      O1294   1.372       .  S
O1292      H1296   0.992       .  S
O1294      H1295   0.992       .  S
C1297      C1298   1.404       .  A
C1297      C1302   1.408       .  A
C1298      C1299   1.399       .  A
C1298      H1303   1.084       .  S
C1299      C1300   1.412       .  A
C1299      O1304   1.372       .  S
C1300      C1301   1.405       .  A
C1301      C1302   1.397       .  A
C1301      H1305   1.083       .  S
C1302      O1306   1.372       .  S
O1304      H1308   0.992       .  S
O1306      H1307   0.992       .  S
C1309      C1310   1.404       .  A
C1310      C1311   1.400       .  A
C1310      H1315   1.084       .  S
C1311      C1312   1.412       .  A
C1311      O1316   1.372       .  S
C1313      C1314   1.397       .  A
C1313      H1317   1.084       .  S
C1314      O1318   1.372       .  S
O1316      H1320   0.992       .  S
O1318      H1319   0.992       .  S
C1321      C1322   1.406       .  A
C1321      C1326   1.412       .  A
C1322      C1323   1.398       .  A
C1322      H1327   1.083       .  S
C1323      C1324   1.411       .  A
C1323      O1328   1.372       .  S
C1324      C1325   1.407       .  A
C1325      C1326   1.401       .  A
C1325      H1329   1.083       .  S
C1326      O1330   1.372       .  S
O1328      H1332   0.992       .  S
O1330      H1331   0.992       .  S
C1333      C1334   1.407       .  A
C1333      C1338   1.411       .  A
C1334      C1335   1.402       .  A
C1334      H1339   1.083       .  S
C1335      C1336   1.413       .  A
C1335      O1340   1.372       .  S
C1336      C1337   1.404       .  A
C1337      C1338   1.397       .  A
C1337      H1341   1.083       .  S
C1338      O1342   1.371       .  S
O1340      H1344   0.992       .  S
O1342      H1343   0.992       .  S
C1345      C3170   1.402       .  A
C1345      C1350   1.408   1_655  A
C1346      C3169   1.402       .  A
C1346      C1347   1.399       .  A
C1346      H1351   1.084       .  S
C1347      C3172   1.412       .  A
C1347      O1352   1.372       .  S
C1348      C3171   1.412       .  A
C1348      C1349   1.405   1_655  A
C1349      C1350   1.399       .  A
C1349      H1353   1.083       .  S
C1350      O1354   1.372       .  S
O1352      H1356   0.992       .  S
O1354      H1355   0.992   1_455  S
C1357      C1358   1.406   1_545  A
C1358      C1359   1.400       .  A
C1358      H1363   1.083       .  S
C1359      C1360   1.412       .  A
C1359      O1364   1.372       .  S
C1361      C1362   1.400       .  A
C1361      H1365   1.083       .  S
C1362      O1366   1.372       .  S
O1364      H1368   0.992       .  S
O1366      H1367   0.992       .  S
C1369      C1374   1.412       .  A
C1370      C1371   1.399       .  A
C1370      H1375   1.083       .  S
C1371      O1376   1.372       .  S
C1372      C1373   1.406   1_545  A
C1373      C1374   1.400       .  A
C1373      H1377   1.083       .  S
C1374      O1378   1.372       .  S
O1376      H1380   0.992       .  S
O1378      H1379   0.992       .  S
C1381      C1382   1.406   1_545  A
C1381      C2298   1.414   1_655  A
C1382      C1383   1.401       .  A
C1382      H1387   1.083       .  S
C1383      C1384   1.408   1_565  A
C1383      O1388   1.372       .  S
C1384      C2297   1.402   1_655  A
C1385      C2296   1.402       .  A
C1385      C1386   1.400       .  A
C1385      H1389   1.084       .  S
C1386      C2293   1.414       .  A
C1386      O1390   1.371       .  S
O1388      H1392   0.992   1_655  S
O1390      H1391   0.992       .  S
C1393      C1394   1.406       .  A
C1393      C1398   1.412       .  A
C1394      C1395   1.399       .  A
C1394      H1399   1.083       .  S
C1395      C1396   1.412       .  A
C1395      O1400   1.371       .  S
C1396      C1397   1.406       .  A
C1397      C1398   1.397       .  A
C1397      H1401   1.083       .  S
C1398      O1402   1.372       .  S
O1400      H1404   0.992       .  S
O1402      H1403   0.992       .  S
C1405      C1406   1.406       .  A
C1406      C1407   1.400       .  A
C1406      H1411   1.083       .  S
C1407      O1412   1.371       .  S
C1408      C1409   1.405       .  A
C1409      C1410   1.399       .  A
C1409      H1413   1.083       .  S
C1410      O1414   1.372       .  S
O1412      H1416   0.992       .  S
O1414      H1415   0.992       .  S
C1417      C1418   1.405       .  A
C1417      C1422   1.413       .  A
C1418      C1419   1.398       .  A
C1418      H1423   1.083       .  S
C1419      C1420   1.413       .  A
C1419      O1424   1.372       .  S
C1420      C1421   1.405       .  A
C1421      C1422   1.399       .  A
C1421      H1425   1.083       .  S
C1422      O1426   1.372       .  S
O1424      H1428   0.992       .  S
O1426      H1427   0.992       .  S
C1429      C1430   1.407       .  A
C1429      C1434   1.411       .  A
C1430      C1431   1.399       .  A
C1430      H1435   1.083       .  S
C1431      C1432   1.411       .  A
C1431      O1436   1.372       .  S
C1432      C1433   1.407       .  A
C1433      C1434   1.398       .  A
C1433      H1437   1.083       .  S
C1434      O1438   1.372       .  S
O1436      H1440   0.992       .  S
O1438      H1439   0.992       .  S
C1441      C1442   1.404   1_655  A
C1441      C3270   1.411       .  A
C1442      C1443   1.398       .  A
C1442      H1447   1.083       .  S
C1443      C1444   1.411   1_455  A
C1443      O1448   1.372       .  S
C1444      C3269   1.405       .  A
C1445      C3268   1.405       .  A
C1445      C1446   1.399       .  A
C1445      H1449   1.084       .  S
C1446      C3265   1.411       .  A
C1446      O1450   1.372       .  S
O1448      H1452   0.992       .  S
O1450      H1451   0.992       .  S
C1453      C1454   1.407       .  A
C1453      C1458   1.411       .  A
C1454      C1455   1.399       .  A
C1454      H1459   1.083       .  S
C1455      C1456   1.411       .  A
C1455      O1460   1.372       .  S
C1456      C1457   1.407       .  A
C1457      C1458   1.400       .  A
C1457      H1461   1.083       .  S
C1458      O1462   1.372       .  S
O1460      H1464   0.992       .  S
O1462      H1463   0.992       .  S
C1465      C1466   1.407       .  A
C1465      C1470   1.411       .  A
C1466      C1467   1.399       .  A
C1466      H1471   1.083       .  S
C1467      C1468   1.411       .  A
C1467      O1472   1.372       .  S
C1468      C1469   1.406       .  A
C1469      C1470   1.398       .  A
C1469      H1473   1.083       .  S
C1470      O1474   1.372       .  S
O1472      H1476   0.992       .  S
O1474      H1475   0.992       .  S
C1477      C3302   1.404   1_455  A
C1478      C3301   1.404       .  A
C1478      C1479   1.398       .  A
C1478      H1483   1.083       .  S
C1479      C3304   1.410       .  A
C1479      O1484   1.371       .  S
C1480      C3303   1.410   1_455  A
C1481      C1482   1.400       .  A
C1481      H1485   1.084       .  S
C1482      O1486   1.372       .  S
O1484      H1488   0.992   1_545  S
O1486      H1487   0.992       .  S
C1489      C1490   1.401       .  A
C1489      C1494   1.404       .  A
C1490      C1491   1.397   1_554  A
C1490      H1495   1.084       .  S
C1491      C1492   1.412       .  A
C1491      O1496   1.372       .  S
C1492      C1493   1.407       .  A
C1493      C1494   1.397   1_556  A
C1493      H1497   1.083       .  S
C1494      O1498   1.372       .  S
O1496      H1500   0.992       .  S
O1498      H1499   0.992       .  S
C1501      C1502   1.405       .  A
C1501      C1506   1.413       .  A
C1502      C1503   1.399       .  A
C1502      H1507   1.083       .  S
C1503      C1504   1.412       .  A
C1503      O1508   1.371       .  S
C1504      C1505   1.406       .  A
C1505      C1506   1.399       .  A
C1505      H1509   1.083       .  S
C1506      O1510   1.372       .  S
O1508      H1512   0.992       .  S
O1510      H1511   0.992       .  S
C1513      C1514   1.405       .  A
C1513      C1518   1.413       .  A
C1514      C1515   1.399       .  A
C1514      H1519   1.083       .  S
C1515      C1516   1.412       .  A
C1515      O1520   1.372       .  S
C1516      C1517   1.405       .  A
C1517      C1518   1.399       .  A
C1517      H1521   1.083       .  S
C1518      O1522   1.372       .  S
O1520      H1524   0.992       .  S
O1522      H1523   0.992       .  S
C1525      C1530   1.410       .  A
C1526      C1527   1.400   1_556  A
C1526      H1531   1.084       .  S
C1527      O1532   1.371       .  S
C1528      C1529   1.405       .  A
C1529      C1530   1.399   1_554  A
C1529      H1533   1.084       .  S
C1530      O1534   1.372       .  S
O1532      H1536   0.992       .  S
O1534      H1535   0.992       .  S
C1537      C1538   1.402       .  A
C1537      C3366   1.408   1_455  A
C1538      C1539   1.399   1_556  A
C1538      H1543   1.084       .  S
C1539      C1540   1.412       .  A
C1539      O1544   1.371       .  S
C1540      C3365   1.407   1_455  A
C1541      C3364   1.407       .  A
C1541      C1542   1.400   1_554  A
C1541      H1545   1.083       .  S
C1542      C3361   1.408       .  A
C1542      O1546   1.372       .  S
O1544      H1548   0.992       .  S
O1546      H1547   0.992       .  S
C1549      C2860   1.484   1_655  S
C1549      C1550   1.405   1_655  A
C1549      C3378   1.412       .  A
C1550      C1551   1.398       .  A
C1550      H1555   1.083       .  S
C1551      C1552   1.412       .  A
C1551      O1556   1.372       .  S
C1552      C3377   1.405   1_455  A
C1553      C3376   1.405       .  A
C1553      C1554   1.398       .  A
C1553      H1557   1.083       .  S
C1554      C3373   1.412       .  A
C1554      O1558   1.372       .  S
O1556      H1560   0.992       .  S
O1558      H1559   0.992       .  S
C1561      C1562   1.406   1_655  A
C1561      C3390   1.412       .  A
C1562      C1563   1.399       .  A
C1562      H1567   1.083       .  S
C1563      C1564   1.412       .  A
C1563      O1568   1.372       .  S
C1564      C2859   1.486       .  S
C1564      C3389   1.406   1_455  A
C1565      C3388   1.406       .  A
C1565      C1566   1.399       .  A
C1565      H1569   1.083       .  S
C1566      C3385   1.412       .  A
C1566      O1570   1.372       .  S
O1568      H1572   0.992       .  S
O1570      H1571   0.992       .  S
C1573      C3398   1.403       .  A
C1574      C3397   1.403       .  A
C1574      C1575   1.400   1_554  A
C1574      H1579   1.084       .  S
C1575      C1576   1.412       .  A
C1575      O1580   1.372       .  S
C1576      C2489   1.405   1_465  A
C1577      C2488   1.405       .  A
C1577      C1578   1.398   1_556  A
C1577      H1581   1.083       .  S
C1578      O1582   1.372       .  S
O1580      H1584   0.992       .  S
O1582      H1583   0.992       .  S
C1585      C1586   1.405       .  A
C1585      C1590   1.413       .  A
C1586      C1587   1.399       .  A
C1586      H1591   1.083       .  S
C1587      C1588   1.413       .  A
C1587      O1592   1.372       .  S
C1588      C1589   1.406       .  A
C1589      C1590   1.401       .  A
C1589      H1593   1.083       .  S
C1590      O1594   1.371       .  S
O1592      H1596   0.992       .  S
O1594      H1595   0.992       .  S
C1597      C1598   1.407   1_545  A
C1598      C1599   1.400       .  A
C1598      H1603   1.083       .  S
C1599      C1600   1.412       .  A
C1599      O1604   1.372       .  S
C1601      C1602   1.396       .  A
C1601      H1605   1.083       .  S
C1602      O1606   1.372       .  S
O1604      H1608   0.992       .  S
O1606      H1607   0.992       .  S
C1609      C3434   1.406   1_455  A
C1609      C1614   1.412       .  A
C1610      C3433   1.406       .  A
C1610      C1611   1.399       .  A
C1610      H1615   1.083       .  S
C1611      C3436   1.412       .  A
C1611      O1616   1.372       .  S
C1612      C3435   1.412       .  A
C1612      C1613   1.407   1_655  A
C1613      C1614   1.401       .  A
C1613      H1617   1.083       .  S
C1614      O1618   1.372       .  S
O1616      H1620   0.992       .  S
O1618      H1619   0.992       .  S
C1621      C1622   1.406       .  A
C1621      C1626   1.413       .  A
C1622      C1623   1.399       .  A
C1622      H1627   1.083       .  S
C1623      C1624   1.412       .  A
C1623      O1628   1.372       .  S
C1624      C1625   1.407       .  A
C1625      C1626   1.401       .  A
C1625      H1629   1.083       .  S
C1626      O1630   1.372       .  S
O1628      H1632   0.992       .  S
O1630      H1631   0.992       .  S
C1633      C1634   1.404       .  A
C1633      C1638   1.412       .  A
C1634      C1635   1.398       .  A
C1634      H1639   1.083       .  S
C1635      C1636   1.412       .  A
C1635      O1640   1.372       .  S
C1636      C1637   1.405       .  A
C1637      C1638   1.401       .  A
C1637      H1641   1.084       .  S
C1638      O1642   1.372       .  S
O1640      H1644   0.992       .  S
O1642      H1643   0.992       .  S
C1645      C3474   1.412   1_445  A
C1646      C1647   1.398       .  A
C1646      H1651   1.084       .  S
C1647      O1652   1.372       .  S
C1648      C3473   1.406   1_445  A
C1649      C3472   1.406   1_565  A
C1649      C1650   1.402       .  A
C1649      H1653   1.083       .  S
C1650      C3469   1.412   1_565  A
C1650      O1654   1.372       .  S
O1652      H1656   0.992       .  S
O1654      H1655   0.992       .  S
C1657      C1658   1.407   1_545  A
C1658      C1659   1.400       .  A
C1658      H1663   1.083       .  S
C1659      C1660   1.411   1_565  A
C1659      O1664   1.372       .  S
C1661      C1662   1.398       .  A
C1661      H1665   1.083       .  S
C1662      O1666   1.372       .  S
O1664      H1668   0.992       .  S
O1666      H1667   0.992       .  S
C1669      C1674   1.412   1_545  A
C1670      C1671   1.400       .  A
C1670      H1675   1.083       .  S
C1671      O1676   1.372       .  S
C1672      C1673   1.404   1_545  A
C1673      C1674   1.398       .  A
C1673      H1677   1.083       .  S
C1674      O1678   1.372       .  S
O1676      H1680   0.992       .  S
O1678      H1679   0.992       .  S
C1681      C1682   1.408       .  A
C1681      C1686   1.410       .  A
C1682      C1683   1.401       .  A
C1682      H1687   1.083       .  S
C1683      C1684   1.411       .  A
C1683      O1688   1.372       .  S
C1684      C1685   1.405       .  A
C1685      C1686   1.395       .  A
C1685      H1689   1.083       .  S
C1686      O1690   1.372       .  S
O1688      H1692   0.992       .  S
O1690      H1691   0.992       .  S
C1693      C1694   1.404       .  A
C1693      C1698   1.411       .  A
C1694      C1695   1.401       .  A
C1694      H1699   1.084       .  S
C1695      C1696   1.411       .  A
C1695      O1700   1.371       .  S
C1696      C1697   1.404       .  A
C1697      C1698   1.401       .  A
C1697      H1701   1.084       .  S
C1698      O1702   1.372       .  S
O1700      H1704   0.992       .  S
O1702      H1703   0.992       .  S
C1705      C1706   1.407       .  A
C1705      C1710   1.411       .  A
C1706      C1707   1.400       .  A
C1706      H1711   1.083       .  S
C1707      C1708   1.412       .  A
C1707      O1712   1.372       .  S
C1708      C1709   1.406       .  A
C1709      C1710   1.397       .  A
C1709      H1713   1.083       .  S
C1710      O1714   1.372       .  S
O1712      H1716   0.992       .  S
O1714      H1715   0.992       .  S
C1717      C1718   1.407       .  A
C1717      C1722   1.411       .  A
C1718      C1719   1.400       .  A
C1718      H1723   1.083       .  S
C1719      C1720   1.412       .  A
C1719      O1724   1.372       .  S
C1720      C1721   1.406       .  A
C1721      C1722   1.397       .  A
C1721      H1725   1.083       .  S
C1722      O1726   1.372       .  S
O1724      H1728   0.992       .  S
O1726      H1727   0.992       .  S
C1729      C1730   1.407       .  A
C1730      C1731   1.401       .  A
C1730      H1735   1.083       .  S
C1731      C1732   1.411       .  A
C1731      O1736   1.371       .  S
C1733      C1734   1.398       .  A
C1733      H1737   1.083       .  S
C1734      O1738   1.372       .  S
O1736      H1740   0.992       .  S
O1738      H1739   0.992       .  S
C1741      C1746   1.410   1_545  A
C1742      C1743   1.399       .  A
C1742      H1747   1.084       .  S
C1743      O1748   1.372       .  S
C1744      C1745   1.404   1_545  A
C1745      C1746   1.399       .  A
C1745      H1749   1.084       .  S
C1746      O1750   1.372       .  S
O1748      H1752   0.992       .  S
O1750      H1751   0.992       .  S
C1753      C3578   1.405   1_455  A
C1753      C1758   1.412       .  A
C1754      C3577   1.405       .  A
C1754      C1755   1.398       .  A
C1754      H1759   1.083       .  S
C1755      C3580   1.412       .  A
C1755      O1760   1.372       .  S
C1756      C3579   1.412       .  A
C1756      C1757   1.406   1_655  A
C1757      C1758   1.399       .  A
C1757      H1761   1.083       .  S
C1758      O1762   1.372       .  S
O1760      H1764   0.992       .  S
O1762      H1763   0.992       .  S
C1765      C3590   1.405       .  A
C1765      C1770   1.409   1_655  A
C1766      C3589   1.405       .  A
C1766      C1767   1.400       .  A
C1766      H1771   1.084       .  S
C1767      C3592   1.411       .  A
C1767      O1772   1.372       .  S
C1768      C3591   1.411       .  A
C1768      C1769   1.404   1_655  A
C1769      C1770   1.396       .  A
C1769      H1773   1.084       .  S
C1770      O1774   1.372       .  S
O1772      H1776   0.992       .  S
O1774      H1775   0.992       .  S
C1777      C3602   1.407   1_455  A
C1777      C1782   1.411       .  A
C1778      C3601   1.407       .  A
C1778      C1779   1.402       .  A
C1778      H1783   1.083       .  S
C1779      C3604   1.411       .  A
C1779      O1784   1.372       .  S
C1780      C3603   1.411       .  A
C1780      C1781   1.405   1_655  A
C1781      C1782   1.398       .  A
C1781      H1785   1.083       .  S
C1782      O1786   1.372       .  S
O1784      H1788   0.992       .  S
O1786      H1787   0.992       .  S
C1789      C3614   1.405   1_455  A
C1789      C1794   1.412       .  A
C1790      C3613   1.405       .  A
C1790      C1791   1.397       .  A
C1790      H1795   1.083       .  S
C1791      C3616   1.411       .  A
C1791      O1796   1.372       .  S
C1792      C3615   1.411   1_455  A
C1792      C1793   1.406       .  A
C1793      C1794   1.401       .  A
C1793      H1797   1.083       .  S
C1794      O1798   1.372       .  S
O1796      H1800   0.992       .  S
O1798      H1799   0.992       .  S
C1801      C3626   1.404   1_565  A
C1802      C3625   1.404   1_445  A
C1802      C1803   1.398       .  A
C1802      H1807   1.084       .  S
C1803      C3628   1.410   1_545  A
C1803      O1808   1.372       .  S
C1804      C3627   1.410   1_565  A
C1805      C1806   1.403       .  A
C1805      H1809   1.084       .  S
C1806      O1810   1.372       .  S
O1808      H1812   0.992       .  S
O1810      H1811   0.992       .  S
C1813      C2726   1.401       .  A
C1813      C1818   1.405   1_545  A
C1814      C2725   1.401       .  A
C1814      C1815   1.402       .  A
C1814      H1819   1.084       .  S
C1815      C2728   1.416       .  A
C1815      O1820   1.372       .  S
C1816      C2727   1.416       .  A
C1816      C1817   1.406   1_545  A
C1817      C1818   1.396       .  A
C1817      H1821   1.083       .  S
C1818      O1822   1.372       .  S
O1820      H1824   0.992       .  S
O1822      H1823   0.992       .  S
O1825     Ni1833   1.913       .  S
O1826     Ni2745   1.913   1_545  S
O1827     Ni1833   1.921       .  S
O1827      C1837   1.282   1_655  A
O1828     Ni1833   1.917       .  S
O1828      C1838   1.283   1_655  A
O1829     Ni1834   1.913       .  S
O1830     Ni1834   1.911       .  S
O1831     Ni1834   1.916       .  S
O1831      C1836   1.281       .  A
O1832     Ni2746   1.918       .  S
O1832      C1835   1.282       .  A
Ni1833     O2738   1.913       .  S
Ni1834     O2744   1.918   1_545  S
C1835      C2689   1.485       .  S
C1836      C2701   1.485       .  S
C1837      C2713   1.481   1_455  S
C1838      C2728   1.485       .  S
O1839     Ni1847   1.913       .  S
O1839      C1849   1.281       .  A
O1840     Ni1847   1.911       .  S
O1840      C1850   1.281       .  A
O1841     Ni1847   1.913       .  S
O1841      C1851   1.281       .  A
O1842     Ni1847   1.914       .  S
O1842      C1852   1.281       .  A
O1843     Ni1848   1.914       .  S
O1844     Ni1848   1.913       .  S
O1845     Ni1848   1.921       .  S
O1846     Ni1848   1.915       .  S
C1849      C2704   1.484       .  S
C1850      C2692   1.484       .  S
C1851      C2677   1.475       .  S
C1852      C2665   1.484       .  S
O1853     Ni2773   1.913   1_545  S
O1853      C1863   1.282       .  A
O1854     Ni1861   1.911       .  S
O1854      C1864   1.280       .  A
O1855     Ni1861   1.916       .  S
O1855      C1865   1.281       .  A
O1856     Ni1861   1.916       .  S
O1856      C1866   1.282       .  A
O1857     Ni1862   1.914       .  S
O1857      C2778   1.281       .  A
O1858     Ni1862   1.914       .  S
O1858      C2777   1.280       .  A
O1859     Ni2774   1.915       .  S
O1859      C1864   1.282       .  A
O1860     Ni1862   1.918       .  S
O1860      C1863   1.281       .  A
Ni1861     O2765   1.913       .  S
Ni1861    Ni2774   2.385       .  S
Ni1862     O2771   1.915   1_545  S
Ni1862    Ni2773   2.385   1_545  S
C1863      C2632   1.486       .  S
C1864      C2617   1.484       .  S
C1865      O2770   1.280       .  A
C1865      C2656   1.479       .  S
C1866      O2769   1.281       .  A
C1866      C2641   1.485       .  S
O1867     Ni1875   1.911       .  S
O1867      C1877   1.280       .  A
O1868     Ni1875   1.913       .  S
O1868      C1878   1.280       .  A
O1869     Ni1875   1.919       .  S
O1869      C1879   1.282       .  A
O1870     Ni1875   1.915       .  S
O1870      C1880   1.282       .  A
O1871     Ni1876   1.913       .  S
O1871      C1880   1.281       .  A
O1872     Ni1876   1.910       .  S
O1872      C1879   1.281       .  A
O1873     Ni1876   1.920       .  S
O1873      C1878   1.282       .  A
O1874     Ni1876   1.916       .  S
O1874      C1877   1.282       .  A
Ni1875    Ni1876   2.385       .  S
C1877      C2593   1.483       .  S
C1878      C2605   1.481       .  S
C1879      C2620   1.484       .  S
C1880      C2629   1.485       .  S
O1881     Ni1889   1.913       .  S
O1881      C1891   1.281   1_655  A
O1882     Ni1889   1.917       .  S
O1883     Ni1889   1.909       .  S
O1883      C1893   1.280       .  A
O1884      C1894   1.281       .  A
O1885     Ni1890   1.917       .  S
O1885      C2806   1.282       .  A
O1886      C2805   1.283       .  A
O1887     Ni1890   1.917       .  S
O1887      C2804   1.282       .  A
O1888     Ni1890   1.917       .  S
C1891      C2725   1.470       .  S
C1892      O2799   1.282       .  A
C1892      C2557   1.484       .  S
C1893      O2798   1.283       .  A
C1893      C2569   1.485       .  S
C1894      O2797   1.282       .  A
C1894      C2581   1.486       .  S
O1895      C1905   1.282       .  A
O1896     Ni1903   1.913       .  S
O1896      C1906   1.280       .  A
O1897     Ni1903   1.914       .  S
O1897      C1907   1.281       .  A
O1898     Ni1903   1.916       .  S
O1898      C1908   1.281       .  A
O1899     Ni1904   1.914       .  S
O1900     Ni1904   1.917       .  S
O1901      C1906   1.282       .  A
O1902     Ni1904   1.918       .  S
O1902      C1905   1.282       .  A
C1905      C2536   1.488       .  S
C1906      C2548   1.483       .  S
C1907      C2680   1.478       .  S
C1908      C2521   1.486       .  S
O1909     Ni1917   1.921       .  S
O1909      C1919   1.282       .  A
O1910     Ni1917   1.918       .  S
O1910      C1920   1.283       .  A
O1911     Ni1917   1.913       .  S
O1911      C1921   1.280       .  A
O1912     Ni1917   1.913       .  S
O1912      C1922   1.281       .  A
O1913     Ni1918   1.915       .  S
O1913      C2834   1.281       .  A
O1914     Ni1918   1.916       .  S
O1914      C2833   1.281       .  A
O1915     Ni1918   1.912       .  S
O1915      C2832   1.280       .  A
O1916     Ni1918   1.910       .  S
O1916      C2831   1.280       .  A
Ni1917    Ni2830   2.385       .  S
Ni1918    Ni2829   2.385   1_545  S
C1919      O2828   1.280       .  A
C1919      C2572   1.486       .  S
C1920      O2827   1.280       .  A
C1920      C2584   1.486       .  S
C1921      O2826   1.281       .  A
C1921      C2653   1.476       .  S
C1922      O2825   1.281       .  A
C1922      C2509   1.485       .  S
O1923     Ni1931   1.919       .  S
O1923      C1933   1.281       .  A
O1924     Ni1931   1.918       .  S
O1924      C1934   1.282       .  A
O1925     Ni1931   1.916       .  S
O1925      C1935   1.281       .  A
O1926     Ni1931   1.918       .  S
O1926      C1936   1.282       .  A
O1927     Ni1932   1.915       .  S
O1927      C1936   1.281       .  A
O1928     Ni1932   1.916       .  S
O1928      C1935   1.282       .  A
O1929     Ni1932   1.916       .  S
O1929      C1934   1.281       .  A
O1930     Ni1932   1.921       .  S
O1930      C1933   1.282       .  A
Ni1931    Ni1932   2.384       .  S
C1933      C2608   1.483       .  S
C1934      C2497   1.488       .  S
C1935      C2533   1.488       .  S
C1936      C2545   1.482       .  S
O1937     Ni2857   1.913   1_545  S
O1937      C1947   1.281   1_655  A
O1938     Ni1945   1.912       .  S
O1938      C1948   1.280   1_655  A
O1939     Ni1945   1.919       .  S
O1939      C1949   1.282   1_655  A
O1940     Ni1945   1.917       .  S
O1940      C1950   1.281   1_655  A
O1941     Ni1946   1.914       .  S
O1942     Ni1946   1.914       .  S
O1943     Ni2858   1.914       .  S
O1944     Ni1946   1.917       .  S
Ni1945     O2849   1.913       .  S
Ni1946     O2855   1.914   1_545  S
C1949      C2716   1.482       .  S
C1950      C2485   1.476       .  S
O1951     Ni1959   1.912       .  S
O1951      C1961   1.280       .  A
O1952     Ni1959   1.913       .  S
O1952      C1962   1.281       .  A
O1953     Ni1959   1.914       .  S
O1953      C1963   1.281       .  A
O1954     Ni1959   1.914       .  S
O1954      C1964   1.281       .  A
O1955     Ni1960   1.916       .  S
O1956     Ni1960   1.916       .  S
O1957     Ni1960   1.917       .  S
O1958     Ni1960   1.913       .  S
C1961      C2464   1.483       .  S
C1962      C2473   1.486       .  S
C1963      C2452   1.483       .  S
C1964      C2668   1.484       .  S
O1965     Ni1973   1.909       .  S
O1965      C2887   1.280   1_545  A
O1966     Ni1973   1.907       .  S
O1966      C2888   1.279   1_545  A
O1967     Ni1973   1.920       .  S
O1967      C1977   1.283       .  A
O1968     Ni2885   1.916       .  S
O1968      C1978   1.282       .  A
O1969     Ni1974   1.912       .  S
O1969      C1978   1.280       .  A
O1970     Ni2886   1.911   1_545  S
O1970      C1977   1.280       .  A
O1971     Ni1974   1.922       .  S
O1971      C1976   1.283       .  A
O1972     Ni1974   1.923       .  S
O1972      C1975   1.283       .  A
Ni1973     O2880   1.916   1_545  S
Ni1973    Ni2886   2.385   1_545  S
Ni1974     O2882   1.911       .  S
Ni1974    Ni2885   2.385       .  S
C1975      O2877   1.280       .  A
C1975      C2644   1.486       .  S
C1976      O2878   1.279       .  A
C1976      C2440   1.478       .  S
C1977      C2425   1.485       .  S
C1978      C2413   1.485       .  S
O1979     Ni1987   1.917       .  S
O1979      C1989   1.282       .  A
O1980     Ni1987   1.914       .  S
O1980      C1990   1.281       .  A
O1981     Ni1987   1.903       .  S
O1981      C1991   1.278       .  A
O1982     Ni1987   1.904       .  S
O1982      C1992   1.280       .  A
O1983     Ni1988   1.920       .  S
O1983      C1992   1.282       .  A
O1984     Ni1988   1.916       .  S
O1984      C1991   1.281       .  A
O1985     Ni1988   1.916       .  S
O1985      C1990   1.282       .  A
O1986     Ni1988   1.912       .  S
O1986      C1989   1.281       .  A
Ni1987    Ni1988   2.387       .  S
C1989      C2416   1.485       .  S
C1990      C2428   1.483       .  S
C1991      C2401   1.465       .  S
C1992      C2596   1.482       .  S
O1993     Ni2001   1.913       .  S
O1994     Ni2001   1.915       .  S
O1995      C2005   1.281       .  A
O1996     Ni2913   1.911       .  S
O1996      C2006   1.281       .  A
O1997      C2006   1.283       .  A
O1998     Ni2914   1.916   1_545  S
O1998      C2005   1.281       .  A
O1999     Ni2002   1.916       .  S
O1999      C2004   1.281       .  A
O2000     Ni2002   1.916       .  S
O2000      C2003   1.281       .  A
Ni2001     O2908   1.911   1_545  S
Ni2002     O2910   1.916       .  S
C2003      C2389   1.480       .  S
C2004      C2488   1.481       .  S
C2005      C2377   1.485       .  S
C2006      C2365   1.486       .  S
O2007      C2017   1.283       .  A
O2008     Ni2015   1.916       .  S
O2008      C2018   1.282       .  A
O2009     Ni2015   1.915       .  S
O2010     Ni2015   1.913       .  S
O2011     Ni2016   1.916       .  S
O2011      C2020   1.282       .  A
O2012     Ni2016   1.916       .  S
O2012      C2019   1.281       .  A
O2013      C2018   1.280       .  A
O2014     Ni2016   1.908       .  S
O2014      C2017   1.280       .  A
C2017      C2344   1.485       .  S
C2018      C2329   1.485       .  S
C2019      C2449   1.475       .  S
C2020      C2353   1.480       .  S
O2021     Ni2029   1.919       .  S
O2021      C2031   1.282       .  A
O2022     Ni2941   1.917   1_545  S
O2022      C2032   1.282       .  A
O2023     Ni2029   1.916       .  S
O2023      C2033   1.281       .  A
O2024     Ni2029   1.916       .  S
O2024      C2034   1.281       .  A
O2025     Ni2030   1.918       .  S
O2025      C2946   1.282       .  A
O2026     Ni2030   1.917       .  S
O2026      C2945   1.282   1_545  A
O2027     Ni2030   1.911       .  S
O2027      C2032   1.280       .  A
O2028     Ni2942   1.910       .  S
O2028      C2031   1.280       .  A
Ni2029     O2934   1.917       .  S
Ni2029    Ni2942   2.384       .  S
Ni2030     O2940   1.910   1_545  S
Ni2030    Ni2941   2.384   1_545  S
C2031      C2341   1.485       .  S
C2032      C2332   1.485       .  S
C2033      O2938   1.282       .  A
C2033      C2437   1.480       .  S
C2034      O2937   1.282       .  A
C2034      C2320   1.488       .  S
O2035     Ni2043   1.912       .  S
O2035      C2045   1.281       .  A
O2036     Ni2043   1.911       .  S
O2036      C2046   1.281       .  A
O2037     Ni2043   1.915       .  S
O2037      C2047   1.282       .  A
O2038     Ni2043   1.913       .  S
O2038      C2048   1.281       .  A
O2039     Ni2044   1.910       .  S
O2039      C2048   1.280       .  A
O2040     Ni2044   1.911       .  S
O2040      C2047   1.280       .  A
O2041     Ni2044   1.918       .  S
O2041      C2046   1.282       .  A
O2042     Ni2044   1.920       .  S
O2042      C2045   1.282       .  A
Ni2043    Ni2044   2.384       .  S
C2045      C2368   1.486       .  S
C2046      C2380   1.485       .  S
C2047      C2305   1.484       .  S
C2048      C2404   1.480       .  S
O2049      C2971   1.281       .  A
O2050     Ni2057   1.915       .  S
O2050      C2972   1.281       .  A
O2051     Ni2057   1.913       .  S
O2051      C2973   1.281       .  A
O2052     Ni2057   1.914       .  S
O2052      C2974   1.280       .  A
O2053     Ni2058   1.922       .  S
O2054     Ni2058   1.923       .  S
O2055      C2060   1.282       .  A
O2056     Ni2058   1.917       .  S
O2056      C2059   1.282       .  A
C2059      O2961   1.281       .  A
C2059      C2269   1.487       .  S
C2060      O2962   1.281       .  A
C2060      C2284   1.485       .  S
C2061      O2963   1.281       .  A
C2061      C2560   1.485       .  S
C2062      O2964   1.280       .  A
C2062      C2293   1.486       .  S
O2063      C2073   1.281       .  A
O2064     Ni2071   1.914       .  S
O2064      C2074   1.281       .  A
O2065     Ni2071   1.917       .  S
O2065      C2075   1.282       .  A
O2066     Ni2071   1.914       .  S
O2066      C2076   1.281       .  A
O2067     Ni2072   1.914       .  S
O2068     Ni2072   1.917       .  S
O2069      C2074   1.281       .  A
O2070     Ni2072   1.918       .  S
O2070      C2073   1.282       .  A
C2073      C2236   1.486       .  S
C2074      C2245   1.485       .  S
C2075      C2524   1.487       .  S
C2076      C2257   1.474       .  S
O2077     Ni2085   1.915       .  S
O2077      C2999   1.282   1_545  A
O2078     Ni2085   1.916       .  S
O2078      C3000   1.282   1_545  A
O2079     Ni2085   1.912       .  S
O2079      C3001   1.282   1_545  A
O2080     Ni2085   1.914       .  S
O2080      C3002   1.280   1_545  A
O2081     Ni2086   1.912       .  S
O2081      C2090   1.281       .  A
O2082     Ni2086   1.916       .  S
O2082      C2089   1.281       .  A
O2083     Ni2086   1.915       .  S
O2083      C2088   1.281       .  A
O2084     Ni2086   1.918       .  S
O2084      C2087   1.282       .  A
Ni2085    Ni2998   2.385   1_545  S
Ni2086    Ni2997   2.385       .  S
C2087      O2989   1.282       .  A
C2087      C2281   1.485       .  S
C2088      O2990   1.282       .  A
C2088      C2272   1.486       .  S
C2089      O2991   1.282       .  A
C2089      C2512   1.485       .  S
C2090      O2992   1.280       .  A
C2090      C2221   1.476       .  S
O2091     Ni2099   1.912       .  S
O2091      C2101   1.281       .  A
O2092     Ni2099   1.917       .  S
O2092      C2102   1.281       .  A
O2093     Ni2099   1.921       .  S
O2093      C2103   1.283       .  A
O2094     Ni2099   1.916       .  S
O2094      C2104   1.281       .  A
O2095     Ni2100   1.912       .  S
O2095      C2104   1.280       .  A
O2096     Ni2100   1.913       .  S
O2096      C2103   1.280       .  A
O2097     Ni2100   1.915       .  S
O2097      C2102   1.282       .  A
O2098     Ni2100   1.920       .  S
O2098      C2101   1.282       .  A
Ni2099    Ni2100   2.385       .  S
C2101      C2233   1.486       .  S
C2102      C2248   1.485       .  S
C2103      C2500   1.488       .  S
C2104      C2209   1.474       .  S
O2105     Ni2113   1.914       .  S
O2105      C3027   1.281       .  A
O2106     Ni2113   1.914       .  S
O2106      C2116   1.280       .  A
O2107     Ni3025   1.918   1_545  S
O2107      C2117   1.282       .  A
O2108      C2118   1.283       .  A
O2109     Ni3026   1.915       .  S
O2109      C2118   1.280       .  A
O2110      C2117   1.280       .  A
O2111     Ni2114   1.920       .  S
O2112     Ni2114   1.919       .  S
Ni2113     O3019   1.918       .  S
Ni2114     O3021   1.915   1_545  S
C2115      O3017   1.281   1_545  A
C2115      C3304   1.482       .  S
C2116      C2296   1.476       .  S
C2117      C2197   1.485       .  S
C2118      C2185   1.486       .  S
O2119     Ni2127   1.914       .  S
O2119      C2129   1.281       .  A
O2120      C2130   1.282       .  A
O2121     Ni2127   1.915       .  S
O2121      C2131   1.281       .  A
O2122     Ni2127   1.914       .  S
O2122      C2132   1.281       .  A
O2123     Ni2128   1.914       .  S
O2124     Ni2128   1.913       .  S
O2125     Ni2128   1.913       .  S
O2125      C2130   1.281       .  A
O2126      C2129   1.281       .  A
C2129      C2176   1.485       .  S
C2130      C2164   1.485       .  S
C2131      C2260   1.480       .  S
C2132      C2356   1.480       .  S
O2133     Ni2141   1.912       .  S
O2133      C2143   1.281       .  A
O2134     Ni3053   1.912   1_545  S
O2134      C2144   1.280       .  A
O2135     Ni2141   1.919       .  S
O2135      C3057   1.283       .  A
O2136     Ni2141   1.917       .  S
O2136      C3058   1.282       .  A
O2137     Ni2142   1.913       .  S
O2137      C2146   1.280       .  A
O2138     Ni2142   1.913       .  S
O2138      C2145   1.280       .  A
O2139     Ni2142   1.914       .  S
O2139      C2144   1.282       .  A
O2140     Ni3054   1.919       .  S
O2140      C2143   1.282       .  A
Ni2141     O3046   1.912       .  S
Ni2141    Ni3054   2.384       .  S
Ni2142     O3052   1.919   1_545  S
Ni2142    Ni3053   2.384   1_545  S
C2143      C2173   1.486       .  S
C2144      C2161   1.484       .  S
C2145      O3047   1.283   1_545  A
C2145      C2317   1.488       .  S
C2146      O3048   1.282   1_545  A
C2146      C3136   1.478       .  S
O2147     Ni2155   1.913       .  S
O2147      C2157   1.280       .  A
O2148     Ni2155   1.914       .  S
O2148      C2158   1.281       .  A
O2149     Ni2155   1.917       .  S
O2149      C2159   1.281       .  A
O2150     Ni2155   1.916       .  S
O2150      C2160   1.282       .  A
O2151     Ni2156   1.912       .  S
O2151      C2160   1.280       .  A
O2152     Ni2156   1.911       .  S
O2152      C2159   1.281       .  A
O2153     Ni2156   1.916       .  S
O2153      C2158   1.282       .  A
O2154     Ni2156   1.915       .  S
O2154      C2157   1.282       .  A
Ni2155    Ni2156   2.384       .  S
C2157      C2200   1.485       .  S
C2158      C2188   1.486       .  S
C2159      C2308   1.485       .  S
C2160      C2212   1.479       .  S
C2161      C2162   1.404       .  A
C2161      C2166   1.413       .  A
C2162      C2163   1.397       .  A
C2162      H2167   1.083       .  S
C2163      C2164   1.412       .  A
C2163      O2168   1.372       .  S
C2164      C2165   1.406       .  A
C2165      C2166   1.400       .  A
C2165      H2169   1.083       .  S
C2166      O2170   1.372       .  S
O2168      H2172   0.992       .  S
O2170      H2171   0.992       .  S
C2173      C2174   1.406       .  A
C2173      C2178   1.412       .  A
C2174      C2175   1.398       .  A
C2174      H2179   1.083       .  S
C2175      C2176   1.412       .  A
C2175      O2180   1.372       .  S
C2176      C2177   1.406       .  A
C2177      C2178   1.400       .  A
C2177      H2181   1.083       .  S
C2178      O2182   1.371       .  S
O2180      H2184   0.992       .  S
O2182      H2183   0.992       .  S
C2185      C2186   1.405       .  A
C2185      C2190   1.413       .  A
C2186      C2187   1.397       .  A
C2186      H2191   1.083       .  S
C2187      C2188   1.412       .  A
C2187      O2192   1.371       .  S
C2188      C2189   1.406       .  A
C2189      C2190   1.400       .  A
C2189      H2193   1.083       .  S
C2190      O2194   1.372       .  S
O2192      H2196   0.992       .  S
O2194      H2195   0.992       .  S
C2197      C2198   1.406       .  A
C2197      C2202   1.413       .  A
C2198      C2199   1.400       .  A
C2198      H2203   1.083       .  S
C2199      C2200   1.413       .  A
C2199      O2204   1.372       .  S
C2200      C2201   1.404       .  A
C2201      C2202   1.397       .  A
C2201      H2205   1.083       .  S
C2202      O2206   1.372       .  S
O2204      H2208   0.992       .  S
O2206      H2207   0.992       .  S
C2209      C2210   1.404       .  A
C2209      C2214   1.408       .  A
C2210      C2211   1.399       .  A
C2210      H2215   1.084       .  S
C2211      C2212   1.412       .  A
C2211      O2216   1.372       .  S
C2212      C2213   1.405       .  A
C2213      C2214   1.397       .  A
C2213      H2217   1.083       .  S
C2214      O2218   1.372       .  S
O2216      H2220   0.992       .  S
O2218      H2219   0.992       .  S
C2221      C2222   1.404       .  A
C2221      C3138   1.409       .  A
C2222      C2223   1.400       .  A
C2222      H2227   1.084       .  S
C2223      C2224   1.412       .  A
C2223      O2228   1.372       .  S
C2224      C3058   1.478       .  S
C2224      C3137   1.403       .  A
C2225      C3136   1.403   1_565  A
C2225      C2226   1.397       .  A
C2225      H2229   1.084       .  S
C2226      C3133   1.409   1_565  A
C2226      O2230   1.372       .  S
O2228      H2232   0.992       .  S
O2230      H2231   0.992       .  S
C2233      C2234   1.406       .  A
C2233      C2238   1.412       .  A
C2234      C2235   1.398       .  A
C2234      H2239   1.083       .  S
C2235      C2236   1.411       .  A
C2235      O2240   1.372       .  S
C2236      C2237   1.407       .  A
C2237      C2238   1.401       .  A
C2237      H2241   1.083       .  S
C2238      O2242   1.372       .  S
O2240      H2244   0.992       .  S
O2242      H2243   0.992       .  S
C2245      C2246   1.407       .  A
C2245      C2250   1.411       .  A
C2246      C2247   1.402       .  A
C2246      H2251   1.083       .  S
C2247      C2248   1.413       .  A
C2247      O2252   1.372       .  S
C2248      C2249   1.404       .  A
C2249      C2250   1.397       .  A
C2249      H2253   1.083       .  S
C2250      O2254   1.371       .  S
O2252      H2256   0.992       .  S
O2254      H2255   0.992       .  S
C2257      C2262   1.408       .  A
C2258      C2259   1.399       .  A
C2258      H2263   1.084       .  S
C2259      O2264   1.372       .  S
C2260      C2261   1.405       .  A
C2261      C2262   1.399       .  A
C2261      H2265   1.083       .  S
C2262      O2266   1.372       .  S
O2264      H2268   0.992       .  S
O2266      H2267   0.992       .  S
C2269      C2270   1.406       .  A
C2269      C3186   1.413       .  A
C2270      C2271   1.400       .  A
C2270      H2275   1.083       .  S
C2271      C2272   1.412       .  A
C2271      O2276   1.372       .  S
C2272      C3185   1.406       .  A
C2273      C3184   1.406   1_545  A
C2273      C2274   1.400       .  A
C2273      H2277   1.083       .  S
C2274      C3181   1.413       .  A
C2274      O2278   1.372       .  S
O2276      H2280   0.992       .  S
O2278      H2279   0.992       .  S
C2281      C3194   1.406       .  A
C2281      C2286   1.412       .  A
C2282      C3193   1.406   1_545  A
C2282      C2283   1.399       .  A
C2282      H2287   1.083       .  S
C2283      C3196   1.412       .  A
C2283      O2288   1.372       .  S
C2284      C3195   1.412       .  A
C2284      C2285   1.406       .  A
C2285      C2286   1.400       .  A
C2285      H2289   1.083       .  S
C2286      O2290   1.372       .  S
O2288      H2292   0.992       .  S
O2290      H2291   0.992       .  S
C2293      C2294   1.406       .  A
C2294      C2295   1.401       .  A
C2294      H2299   1.083       .  S
C2295      C2296   1.408       .  A
C2295      O2300   1.372       .  S
C2297      C2298   1.400       .  A
C2297      H2301   1.084       .  S
C2298      O2302   1.371       .  S
O2300      H2304   0.992       .  S
O2302      H2303   0.992       .  S
C2305      C2306   1.406       .  A
C2305      C2310   1.412       .  A
C2306      C2307   1.399       .  A
C2306      H2311   1.083       .  S
C2307      C2308   1.412       .  A
C2307      O2312   1.371       .  S
C2308      C2309   1.406       .  A
C2309      C2310   1.397       .  A
C2309      H2313   1.083       .  S
C2310      O2314   1.372       .  S
O2312      H2316   0.992       .  S
O2314      H2315   0.992       .  S
C2317      C2318   1.406   1_545  A
C2317      C3234   1.413       .  A
C2318      C2319   1.400       .  A
C2318      H2323   1.083       .  S
C2319      C3232   1.413   1_565  A
C2319      O2324   1.371       .  S
C2320      C3231   1.413       .  A
C2320      C2321   1.405       .  A
C2321      C2322   1.399       .  A
C2321      H2325   1.083       .  S
C2322      C3229   1.413       .  A
C2322      O2326   1.372       .  S
O2324      H2328   0.992       .  S
O2326      H2327   0.992       .  S
C2329      C2330   1.405       .  A
C2329      C2334   1.413       .  A
C2330      C2331   1.398       .  A
C2330      H2335   1.083       .  S
C2331      C2332   1.413       .  A
C2331      O2336   1.372       .  S
C2332      C2333   1.405       .  A
C2333      C2334   1.399       .  A
C2333      H2337   1.083       .  S
C2334      O2338   1.372       .  S
O2336      H2340   0.992       .  S
O2338      H2339   0.992       .  S
C2341      C2342   1.407       .  A
C2341      C2346   1.411       .  A
C2342      C2343   1.399       .  A
C2342      H2347   1.083       .  S
C2343      C2344   1.411       .  A
C2343      O2348   1.372       .  S
C2344      C2345   1.407       .  A
C2345      C2346   1.398       .  A
C2345      H2349   1.083       .  S
C2346      O2350   1.372       .  S
O2348      H2352   0.992       .  S
O2350      H2351   0.992       .  S
C2353      C2354   1.404       .  A
C2354      C2355   1.398       .  A
C2354      H2359   1.083       .  S
C2355      C2356   1.411       .  A
C2355      O2360   1.372       .  S
C2357      C2358   1.399       .  A
C2357      H2361   1.084       .  S
C2358      O2362   1.372       .  S
O2360      H2364   0.992       .  S
O2362      H2363   0.992       .  S
C2365      C2366   1.407       .  A
C2365      C2370   1.411       .  A
C2366      C2367   1.399       .  A
C2366      H2371   1.083       .  S
C2367      C2368   1.411       .  A
C2367      O2372   1.372       .  S
C2368      C2369   1.407       .  A
C2369      C2370   1.400       .  A
C2369      H2373   1.083       .  S
C2370      O2374   1.372       .  S
O2372      H2376   0.992       .  S
O2374      H2375   0.992       .  S
C2377      C2378   1.407       .  A
C2377      C2382   1.411       .  A
C2378      C2379   1.399       .  A
C2378      H2383   1.083       .  S
C2379      C2380   1.411       .  A
C2379      O2384   1.372       .  S
C2380      C2381   1.406       .  A
C2381      C2382   1.398       .  A
C2381      H2385   1.083       .  S
C2382      O2386   1.372       .  S
O2384      H2388   0.992       .  S
O2386      H2387   0.992       .  S
C2389      C3306   1.411       .  A
C2390      C2391   1.398       .  A
C2390      H2395   1.083       .  S
C2391      O2396   1.371       .  S
C2392      C3027   1.482       .  S
C2392      C3305   1.406       .  A
C2393      C3304   1.406   1_565  A
C2393      C2394   1.400       .  A
C2393      H2397   1.084       .  S
C2394      C3301   1.411   1_565  A
C2394      O2398   1.372       .  S
O2396      H2400   0.992       .  S
O2398      H2399   0.992   1_565  S
C2401      C2402   1.401       .  A
C2401      C2406   1.404       .  A
C2402      C2403   1.397   1_554  A
C2402      H2407   1.084       .  S
C2403      C2404   1.412       .  A
C2403      O2408   1.372       .  S
C2404      C2405   1.407       .  A
C2405      C2406   1.397   1_556  A
C2405      H2409   1.083       .  S
C2406      O2410   1.372       .  S
O2408      H2412   0.992       .  S
O2410      H2411   0.992       .  S
C2413      C2414   1.405       .  A
C2413      C2418   1.413       .  A
C2414      C2415   1.399       .  A
C2414      H2419   1.083       .  S
C2415      C2416   1.412       .  A
C2415      O2420   1.371       .  S
C2416      C2417   1.406       .  A
C2417      C2418   1.399       .  A
C2417      H2421   1.083       .  S
C2418      O2422   1.372       .  S
O2420      H2424   0.992       .  S
O2422      H2423   0.992       .  S
C2425      C2426   1.405       .  A
C2425      C2430   1.413       .  A
C2426      C2427   1.399       .  A
C2426      H2431   1.083       .  S
C2427      C2428   1.412       .  A
C2427      O2432   1.372       .  S
C2428      C2429   1.405       .  A
C2429      C2430   1.399       .  A
C2429      H2433   1.083       .  S
C2430      O2434   1.372       .  S
O2432      H2436   0.992       .  S
O2434      H2435   0.992       .  S
C2437      C3350   1.405       .  A
C2437      C2442   1.410       .  A
C2438      C3349   1.405       .  A
C2438      C2439   1.400   1_556  A
C2438      H2443   1.084       .  S
C2439      C3352   1.408       .  A
C2439      O2444   1.371       .  S
C2440      C3351   1.408       .  A
C2440      C2441   1.405       .  A
C2441      C2442   1.399   1_554  A
C2441      H2445   1.084       .  S
C2442      O2446   1.372       .  S
O2444      H2448   0.992       .  S
O2446      H2447   0.992       .  S
C2449      C2450   1.402       .  A
C2450      C2451   1.399   1_556  A
C2450      H2455   1.084       .  S
C2451      C2452   1.412       .  A
C2451      O2456   1.371       .  S
C2453      C2454   1.400   1_554  A
C2453      H2457   1.083       .  S
C2454      O2458   1.372       .  S
O2456      H2460   0.992       .  S
O2458      H2459   0.992       .  S
C2461      C2462   1.405       .  A
C2462      C2463   1.398       .  A
C2462      H2467   1.083       .  S
C2463      C2464   1.412       .  A
C2463      O2468   1.372       .  S
C2465      C2466   1.398       .  A
C2465      H2469   1.083       .  S
C2466      O2470   1.372       .  S
O2468      H2472   0.992       .  S
O2470      H2471   0.992       .  S
C2473      C2474   1.406       .  A
C2474      C2475   1.399       .  A
C2474      H2479   1.083       .  S
C2475      C2476   1.412       .  A
C2475      O2480   1.372       .  S
C2477      C2478   1.399       .  A
C2477      H2481   1.083       .  S
C2478      O2482   1.372       .  S
O2480      H2484   0.992       .  S
O2482      H2483   0.992       .  S
C2485      C3402   1.408   1_455  A
C2486      C2487   1.400   1_554  A
C2486      H2491   1.084       .  S
C2487      C2488   1.412       .  A
C2487      O2492   1.372       .  S
C2489      C2490   1.398   1_546  A
C2489      H2493   1.083       .  S
C2490      C3397   1.408   1_655  A
C2490      O2494   1.372   1_565  S
O2492      H2496   0.992       .  S
O2494      H2495   0.992       .  S
C2497      C2498   1.405       .  A
C2497      C2502   1.413       .  A
C2498      C2499   1.399       .  A
C2498      H2503   1.083       .  S
C2499      C2500   1.413       .  A
C2499      O2504   1.372       .  S
C2500      C2501   1.406       .  A
C2501      C2502   1.401       .  A
C2501      H2505   1.083       .  S
C2502      O2506   1.371       .  S
O2504      H2508   0.992       .  S
O2506      H2507   0.992       .  S
C2509      C2510   1.407       .  A
C2509      C3426   1.411       .  A
C2510      C2511   1.400       .  A
C2510      H2515   1.083       .  S
C2511      C2512   1.412       .  A
C2511      O2516   1.372       .  S
C2512      C3425   1.405       .  A
C2513      C3424   1.405   1_545  A
C2513      C2514   1.396       .  A
C2513      H2517   1.083       .  S
C2514      C3421   1.411       .  A
C2514      O2518   1.372       .  S
O2516      H2520   0.992       .  S
O2518      H2519   0.992       .  S
C2521      C2526   1.412       .  A
C2522      C2523   1.399       .  A
C2522      H2527   1.083       .  S
C2523      O2528   1.372       .  S
C2524      C2525   1.407       .  A
C2525      C2526   1.401       .  A
C2525      H2529   1.083       .  S
C2526      O2530   1.372       .  S
O2528      H2532   0.992       .  S
O2530      H2531   0.992       .  S
C2533      C2534   1.406       .  A
C2533      C2538   1.413       .  A
C2534      C2535   1.399       .  A
C2534      H2539   1.083       .  S
C2535      C2536   1.412       .  A
C2535      O2540   1.372       .  S
C2536      C2537   1.407       .  A
C2537      C2538   1.401       .  A
C2537      H2541   1.083       .  S
C2538      O2542   1.372       .  S
O2540      H2544   0.992       .  S
O2542      H2543   0.992       .  S
C2545      C2546   1.404       .  A
C2545      C2550   1.412       .  A
C2546      C2547   1.398       .  A
C2546      H2551   1.083       .  S
C2547      C2548   1.412       .  A
C2547      O2552   1.372       .  S
C2548      C2549   1.405       .  A
C2549      C2550   1.401       .  A
C2549      H2553   1.084       .  S
C2550      O2554   1.372       .  S
O2552      H2556   0.992       .  S
O2554      H2555   0.992       .  S
C2557      C3470   1.404       .  A
C2558      C3469   1.404       .  A
C2558      C2559   1.398       .  A
C2558      H2563   1.084       .  S
C2559      C3472   1.412       .  A
C2559      O2564   1.372       .  S
C2560      C3471   1.412       .  A
C2561      C2562   1.402       .  A
C2561      H2565   1.083       .  S
C2562      O2566   1.372       .  S
O2564      H2568   0.992       .  S
O2566      H2567   0.992       .  S
C2569      C2570   1.407       .  A
C2569      C3486   1.411       .  A
C2570      C2571   1.400       .  A
C2570      H2575   1.083       .  S
C2571      C2572   1.411       .  A
C2571      O2576   1.372       .  S
C2572      C3485   1.407       .  A
C2573      C3484   1.407       .  A
C2573      C2574   1.398       .  A
C2573      H2577   1.083       .  S
C2574      C3481   1.411       .  A
C2574      O2578   1.372       .  S
O2576      H2580   0.992       .  S
O2578      H2579   0.992       .  S
C2581      C3494   1.406       .  A
C2581      C2586   1.412       .  A
C2582      C3493   1.406       .  A
C2582      C2583   1.400       .  A
C2582      H2587   1.083       .  S
C2583      C3496   1.413       .  A
C2583      O2588   1.372       .  S
C2584      C3495   1.413       .  A
C2584      C2585   1.404       .  A
C2585      C2586   1.398       .  A
C2585      H2589   1.083       .  S
C2586      O2590   1.372       .  S
O2588      H2592   0.992       .  S
O2590      H2591   0.992       .  S
C2593      C2594   1.408       .  A
C2593      C2598   1.410       .  A
C2594      C2595   1.401       .  A
C2594      H2599   1.083       .  S
C2595      C2596   1.411       .  A
C2595      O2600   1.372       .  S
C2596      C2597   1.405       .  A
C2597      C2598   1.395       .  A
C2597      H2601   1.083       .  S
C2598      O2602   1.372       .  S
O2600      H2604   0.992       .  S
O2602      H2603   0.992       .  S
C2605      C2606   1.404       .  A
C2605      C2610   1.411       .  A
C2606      C2607   1.401       .  A
C2606      H2611   1.084       .  S
C2607      C2608   1.411       .  A
C2607      O2612   1.371       .  S
C2608      C2609   1.404       .  A
C2609      C2610   1.401       .  A
C2609      H2613   1.084       .  S
C2610      O2614   1.372       .  S
O2612      H2616   0.992       .  S
O2614      H2615   0.992       .  S
C2617      C2618   1.407       .  A
C2617      C2622   1.411       .  A
C2618      C2619   1.400       .  A
C2618      H2623   1.083       .  S
C2619      C2620   1.412       .  A
C2619      O2624   1.372       .  S
C2620      C2621   1.406       .  A
C2621      C2622   1.397       .  A
C2621      H2625   1.083       .  S
C2622      O2626   1.372       .  S
O2624      H2628   0.992       .  S
O2626      H2627   0.992       .  S
C2629      C2630   1.407       .  A
C2629      C2634   1.411       .  A
C2630      C2631   1.400       .  A
C2630      H2635   1.083       .  S
C2631      C2632   1.412       .  A
C2631      O2636   1.372       .  S
C2632      C2633   1.406       .  A
C2633      C2634   1.397       .  A
C2633      H2637   1.083       .  S
C2634      O2638   1.372       .  S
O2636      H2640   0.992       .  S
O2638      H2639   0.992       .  S
C2641      C2642   1.407       .  A
C2641      C3558   1.412       .  A
C2642      C2643   1.401       .  A
C2642      H2647   1.083       .  S
C2643      C2644   1.411       .  A
C2643      O2648   1.371       .  S
C2644      C3557   1.406       .  A
C2645      C3556   1.406   1_545  A
C2645      C2646   1.398       .  A
C2645      H2649   1.083       .  S
C2646      C3553   1.412   1_545  A
C2646      O2650   1.372       .  S
O2648      H2652   0.992       .  S
O2650      H2651   0.992   1_545  S
C2653      C3566   1.403       .  A
C2653      C2658   1.410       .  A
C2654      C3565   1.403       .  A
C2654      C2655   1.399       .  A
C2654      H2659   1.084       .  S
C2655      C3568   1.411       .  A
C2655      O2660   1.372       .  S
C2656      C3567   1.411       .  A
C2656      C2657   1.404       .  A
C2657      C2658   1.399       .  A
C2657      H2661   1.084       .  S
C2658      O2662   1.372       .  S
O2660      H2664   0.992       .  S
O2662      H2663   0.992       .  S
C2665      C2670   1.412       .  A
C2666      C2667   1.398       .  A
C2666      H2671   1.083       .  S
C2667      O2672   1.372       .  S
C2668      C2669   1.406       .  A
C2669      C2670   1.399       .  A
C2669      H2673   1.083       .  S
C2670      O2674   1.372       .  S
O2672      H2676   0.992       .  S
O2674      H2675   0.992       .  S
C2677      C2682   1.409       .  A
C2678      C2679   1.400       .  A
C2678      H2683   1.084       .  S
C2679      O2684   1.372       .  S
C2680      C2681   1.404       .  A
C2681      C2682   1.396       .  A
C2681      H2685   1.084       .  S
C2682      O2686   1.372       .  S
O2684      H2688   0.992       .  S
O2686      H2687   0.992       .  S
C2689      C2694   1.411       .  A
C2690      C2691   1.402       .  A
C2690      H2695   1.083       .  S
C2691      O2696   1.372       .  S
C2692      C2693   1.405       .  A
C2693      C2694   1.398       .  A
C2693      H2697   1.083       .  S
C2694      O2698   1.372       .  S
O2696      H2700   0.992       .  S
O2698      H2699   0.992       .  S
C2701      C2706   1.412       .  A
C2702      C2703   1.397       .  A
C2702      H2707   1.083       .  S
C2703      O2708   1.372       .  S
C2704      C2705   1.406       .  A
C2705      C2706   1.401       .  A
C2705      H2709   1.083       .  S
C2706      O2710   1.372       .  S
O2708      H2712   0.992       .  S
O2710      H2711   0.992       .  S
C2713      C3630   1.410       .  A
C2714      C2715   1.398       .  A
C2714      H2719   1.084       .  S
C2715      O2720   1.372       .  S
C2716      C3629   1.406   1_455  A
C2717      C3628   1.406   1_655  A
C2717      C2718   1.403       .  A
C2717      H2721   1.084       .  S
C2718      C3625   1.410       .  A
C2718      O2722   1.372       .  S
O2720      H2724   0.992       .  S
O2722      H2723   0.992       .  S
C2725      C2730   1.405   1_455  A
C2726      C2727   1.402       .  A
C2726      H2731   1.084       .  S
C2727      O2732   1.372       .  S
C2728      C2729   1.406   1_455  A
C2729      C2730   1.396       .  A
C2729      H2733   1.083       .  S
C2730      O2734   1.372       .  S
O2732      H2736   0.992       .  S
O2734      H2735   0.992       .  S
O2737     Ni2745   1.913       .  S
O2739     Ni2745   1.921       .  S
O2739      C2749   1.282   1_655  A
O2740     Ni2745   1.917       .  S
O2740      C2750   1.283   1_665  A
O2741     Ni2746   1.913       .  S
O2742     Ni2746   1.911       .  S
O2743     Ni2746   1.916       .  S
O2743      C2748   1.281       .  A
O2744      C2747   1.282       .  A
C2747      C3601   1.485       .  S
C2748      C3613   1.485       .  S
C2749      C3625   1.481   1_455  S
C2750      C3640   1.485       .  S
O2751     Ni2759   1.913       .  S
O2751      C2761   1.281       .  A
O2752     Ni2759   1.911       .  S
O2752      C2762   1.281       .  A
O2753     Ni2759   1.913       .  S
O2753      C2763   1.281       .  A
O2754     Ni2759   1.914       .  S
O2754      C2764   1.281       .  A
O2755     Ni2760   1.914       .  S
O2756     Ni2760   1.913       .  S
O2757     Ni2760   1.921       .  S
O2758     Ni2760   1.915       .  S
C2761      C3616   1.484       .  S
C2762      C3604   1.484       .  S
C2763      C3589   1.475       .  S
C2764      C3577   1.484       .  S
O2765      C2775   1.282       .  A
O2766     Ni2773   1.911       .  S
O2766      C2776   1.280       .  A
O2767     Ni2773   1.916       .  S
O2767      C2777   1.281   1_565  A
O2768     Ni2773   1.916       .  S
O2768      C2778   1.282   1_565  A
O2769     Ni2774   1.914       .  S
O2770     Ni2774   1.914       .  S
O2771      C2776   1.282       .  A
O2772     Ni2774   1.918       .  S
O2772      C2775   1.281       .  A
C2775      C3544   1.486       .  S
C2776      C3529   1.484       .  S
C2777      C3568   1.479       .  S
C2778      C3553   1.485   1_545  S
O2779     Ni2787   1.911       .  S
O2779      C2789   1.280       .  A
O2780     Ni2787   1.913       .  S
O2780      C2790   1.280       .  A
O2781     Ni2787   1.919       .  S
O2781      C2791   1.282       .  A
O2782     Ni2787   1.915       .  S
O2782      C2792   1.282       .  A
O2783     Ni2788   1.913       .  S
O2783      C2792   1.281       .  A
O2784     Ni2788   1.910       .  S
O2784      C2791   1.281       .  A
O2785     Ni2788   1.920       .  S
O2785      C2790   1.282       .  A
O2786     Ni2788   1.916       .  S
O2786      C2789   1.282       .  A
Ni2787    Ni2788   2.385       .  S
C2789      C3505   1.483       .  S
C2790      C3517   1.481       .  S
C2791      C3532   1.484       .  S
C2792      C3541   1.485       .  S
O2793     Ni2801   1.913       .  S
O2793      C2803   1.281   1_665  A
O2794     Ni2801   1.917       .  S
O2795     Ni2801   1.909       .  S
O2795      C2805   1.280   1_565  A
O2796      C2806   1.281   1_565  A
O2797     Ni2802   1.917       .  S
O2799     Ni2802   1.917       .  S
O2800     Ni2802   1.917       .  S
C2803      C3637   1.470       .  S
C2804      C3469   1.484       .  S
C2805      C3481   1.485       .  S
C2806      C3493   1.486       .  S
O2807      C2817   1.282       .  A
O2808     Ni2815   1.913       .  S
O2808      C2818   1.280       .  A
O2809     Ni2815   1.914       .  S
O2809      C2819   1.281       .  A
O2810     Ni2815   1.916       .  S
O2810      C2820   1.281       .  A
O2811     Ni2816   1.914       .  S
O2812     Ni2816   1.917       .  S
O2813      C2818   1.282       .  A
O2814     Ni2816   1.918       .  S
O2814      C2817   1.282       .  A
C2817      C3448   1.488       .  S
C2818      C3460   1.483       .  S
C2819      C3592   1.478       .  S
C2820      C3433   1.486       .  S
O2821     Ni2829   1.921       .  S
O2821      C2831   1.282   1_565  A
O2822     Ni2829   1.918       .  S
O2822      C2832   1.283   1_565  A
O2823     Ni2829   1.912       .  S
O2823      C2833   1.280   1_565  A
O2824     Ni2829   1.913       .  S
O2824      C2834   1.281   1_565  A
O2825     Ni2830   1.915       .  S
O2826     Ni2830   1.916       .  S
O2827     Ni2830   1.912       .  S
O2828     Ni2830   1.910       .  S
C2831      C3484   1.486       .  S
C2832      C3496   1.486       .  S
C2833      C3565   1.476       .  S
C2834      C3421   1.485       .  S
O2835     Ni2843   1.919       .  S
O2835      C2845   1.281       .  A
O2836     Ni2843   1.918       .  S
O2836      C2846   1.282       .  A
O2837     Ni2843   1.916       .  S
O2837      C2847   1.281       .  A
O2838     Ni2843   1.918       .  S
O2838      C2848   1.282       .  A
O2839     Ni2844   1.915       .  S
O2839      C2848   1.281       .  A
O2840     Ni2844   1.916       .  S
O2840      C2847   1.282       .  A
O2841     Ni2844   1.916       .  S
O2841      C2846   1.281       .  A
O2842     Ni2844   1.921       .  S
O2842      C2845   1.282       .  A
Ni2843    Ni2844   2.384       .  S
C2845      C3520   1.483       .  S
C2846      C3409   1.488       .  S
C2847      C3445   1.488       .  S
C2848      C3457   1.482       .  S
O2849      C2859   1.281   1_655  A
O2850     Ni2857   1.912       .  S
O2850      C2860   1.280   1_655  A
O2851     Ni2857   1.919       .  S
O2851      C2861   1.282   1_655  A
O2852     Ni2857   1.917       .  S
O2852      C2862   1.281   1_655  A
O2853     Ni2858   1.914       .  S
O2854     Ni2858   1.914       .  S
O2856     Ni2858   1.917       .  S
C2861      C3628   1.482       .  S
C2862      C3397   1.476       .  S
O2863     Ni2871   1.912       .  S
O2863      C2873   1.280       .  A
O2864     Ni2871   1.913       .  S
O2864      C2874   1.281       .  A
O2865     Ni2871   1.914       .  S
O2865      C2875   1.281       .  A
O2866     Ni2871   1.914       .  S
O2866      C2876   1.281       .  A
O2867     Ni2872   1.916       .  S
O2868     Ni2872   1.916       .  S
O2869     Ni2872   1.917       .  S
O2870     Ni2872   1.913       .  S
C2873      C3376   1.483       .  S
C2874      C3385   1.486       .  S
C2875      C3364   1.483       .  S
C2876      C3580   1.484       .  S
O2877     Ni2885   1.909       .  S
O2878     Ni2885   1.907       .  S
O2879     Ni2885   1.920       .  S
O2879      C2889   1.283       .  A
O2880      C2890   1.282       .  A
O2881     Ni2886   1.912       .  S
O2881      C2890   1.280       .  A
O2882      C2889   1.280       .  A
O2883     Ni2886   1.922       .  S
O2883      C2888   1.283       .  A
O2884     Ni2886   1.923       .  S
O2884      C2887   1.283       .  A
C2887      C3556   1.486       .  S
C2888      C3352   1.478       .  S
C2889      C3337   1.485       .  S
C2890      C3325   1.485       .  S
O2891     Ni2899   1.917       .  S
O2891      C2901   1.282       .  A
O2892     Ni2899   1.914       .  S
O2892      C2902   1.281       .  A
O2893     Ni2899   1.903       .  S
O2893      C2903   1.278       .  A
O2894     Ni2899   1.904       .  S
O2894      C2904   1.280       .  A
O2895     Ni2900   1.920       .  S
O2895      C2904   1.282       .  A
O2896     Ni2900   1.916       .  S
O2896      C2903   1.281       .  A
O2897     Ni2900   1.916       .  S
O2897      C2902   1.282       .  A
O2898     Ni2900   1.912       .  S
O2898      C2901   1.281       .  A
Ni2899    Ni2900   2.387       .  S
C2901      C3328   1.485       .  S
C2902      C3340   1.483       .  S
C2903      C3313   1.465       .  S
C2904      C3508   1.482       .  S
O2905     Ni2913   1.913       .  S
O2906     Ni2913   1.915       .  S
O2907      C2917   1.281       .  A
O2908      C2918   1.281       .  A
O2909      C2918   1.283       .  A
O2910      C2917   1.281       .  A
O2911     Ni2914   1.916       .  S
O2911      C2916   1.281       .  A
O2912     Ni2914   1.916       .  S
O2912      C2915   1.281   1_565  A
C2915      C3301   1.480       .  S
C2916      C3400   1.481       .  S
C2917      C3289   1.485       .  S
C2918      C3277   1.486       .  S
O2919      C2929   1.283       .  A
O2920     Ni2927   1.916       .  S
O2920      C2930   1.282       .  A
O2921     Ni2927   1.915       .  S
O2922     Ni2927   1.913       .  S
O2923     Ni2928   1.916       .  S
O2923      C2932   1.282       .  A
O2924     Ni2928   1.916       .  S
O2924      C2931   1.281       .  A
O2925      C2930   1.280       .  A
O2926     Ni2928   1.908       .  S
O2926      C2929   1.280       .  A
C2929      C3256   1.485       .  S
C2930      C3241   1.485       .  S
C2931      C3361   1.475       .  S
C2932      C3265   1.480       .  S
O2933     Ni2941   1.919       .  S
O2933      C2943   1.282       .  A
O2934      C2944   1.282       .  A
O2935     Ni2941   1.916       .  S
O2935      C2945   1.281       .  A
O2936     Ni2941   1.916       .  S
O2936      C2946   1.281   1_565  A
O2937     Ni2942   1.918       .  S
O2938     Ni2942   1.917       .  S
O2939     Ni2942   1.911       .  S
O2939      C2944   1.280       .  A
O2940      C2943   1.280       .  A
C2943      C3253   1.485       .  S
C2944      C3244   1.485       .  S
C2945      C3349   1.480       .  S
C2946      C3232   1.488       .  S
O2947     Ni2955   1.912       .  S
O2947      C2957   1.281       .  A
O2948     Ni2955   1.911       .  S
O2948      C2958   1.281       .  A
O2949     Ni2955   1.915       .  S
O2949      C2959   1.282       .  A
O2950     Ni2955   1.913       .  S
O2950      C2960   1.281       .  A
O2951     Ni2956   1.910       .  S
O2951      C2960   1.280       .  A
O2952     Ni2956   1.911       .  S
O2952      C2959   1.280       .  A
O2953     Ni2956   1.918       .  S
O2953      C2958   1.282       .  A
O2954     Ni2956   1.920       .  S
O2954      C2957   1.282       .  A
Ni2955    Ni2956   2.384       .  S
C2957      C3280   1.486       .  S
C2958      C3292   1.485       .  S
C2959      C3217   1.484       .  S
C2960      C3316   1.480       .  S
O2962     Ni2969   1.915       .  S
O2963     Ni2969   1.913       .  S
O2964     Ni2969   1.914       .  S
O2965     Ni2970   1.922       .  S
O2966     Ni2970   1.923       .  S
O2967      C2972   1.282   1_565  A
O2968     Ni2970   1.917       .  S
O2968      C2971   1.282   1_565  A
C2971      C3181   1.487       .  S
C2972      C3196   1.485       .  S
C2973      C3472   1.485       .  S
C2974      C3205   1.486       .  S
O2975      C2985   1.281       .  A
O2976     Ni2983   1.914       .  S
O2976      C2986   1.281       .  A
O2977     Ni2983   1.917       .  S
O2977      C2987   1.282       .  A
O2978     Ni2983   1.914       .  S
O2978      C2988   1.281       .  A
O2979     Ni2984   1.914       .  S
O2980     Ni2984   1.917       .  S
O2981      C2986   1.281       .  A
O2982     Ni2984   1.918       .  S
O2982      C2985   1.282       .  A
C2985      C3148   1.486       .  S
C2986      C3157   1.485       .  S
C2987      C3436   1.487       .  S
C2988      C3169   1.474       .  S
O2989     Ni2997   1.915       .  S
O2990     Ni2997   1.916       .  S
O2991     Ni2997   1.912       .  S
O2992     Ni2997   1.914       .  S
O2993     Ni2998   1.912       .  S
O2993      C3002   1.281       .  A
O2994     Ni2998   1.916       .  S
O2994      C3001   1.281       .  A
O2995     Ni2998   1.915       .  S
O2995      C3000   1.281       .  A
O2996     Ni2998   1.918       .  S
O2996      C2999   1.282       .  A
C2999      C3193   1.485       .  S
C3000      C3184   1.486       .  S
C3001      C3424   1.485       .  S
C3002      C3133   1.476   1_565  S
O3003     Ni3011   1.912       .  S
O3003      C3013   1.281       .  A
O3004     Ni3011   1.917       .  S
O3004      C3014   1.281       .  A
O3005     Ni3011   1.921       .  S
O3005      C3015   1.283       .  A
O3006     Ni3011   1.916       .  S
O3006      C3016   1.281       .  A
O3007     Ni3012   1.912       .  S
O3007      C3016   1.280       .  A
O3008     Ni3012   1.913       .  S
O3008      C3015   1.280       .  A
O3009     Ni3012   1.915       .  S
O3009      C3014   1.282       .  A
O3010     Ni3012   1.920       .  S
O3010      C3013   1.282       .  A
Ni3011    Ni3012   2.385       .  S
C3013      C3145   1.486       .  S
C3014      C3160   1.485       .  S
C3015      C3412   1.488       .  S
C3016      C3121   1.474       .  S
O3017     Ni3025   1.914       .  S
O3018     Ni3025   1.914       .  S
O3018      C3028   1.280   1_565  A
O3019      C3029   1.282       .  A
O3020      C3030   1.283       .  A
O3021      C3030   1.280       .  A
O3022      C3029   1.280       .  A
O3023     Ni3026   1.920       .  S
O3024     Ni3026   1.919       .  S
C3028      C3208   1.476       .  S
C3029      C3109   1.485       .  S
C3030      C3097   1.486       .  S
O3031     Ni3039   1.914       .  S
O3031      C3041   1.281       .  A
O3032      C3042   1.282       .  A
O3033     Ni3039   1.915       .  S
O3033      C3043   1.281       .  A
O3034     Ni3039   1.914       .  S
O3034      C3044   1.281       .  A
O3035     Ni3040   1.914       .  S
O3036     Ni3040   1.913       .  S
O3037     Ni3040   1.913       .  S
O3037      C3042   1.281       .  A
O3038      C3041   1.281       .  A
C3041      C3088   1.485       .  S
C3042      C3076   1.485       .  S
C3043      C3172   1.480       .  S
C3044      C3268   1.480       .  S
O3045     Ni3053   1.912       .  S
O3045      C3055   1.281       .  A
O3046      C3056   1.280       .  A
O3047     Ni3053   1.919       .  S
O3048     Ni3053   1.917       .  S
O3049     Ni3054   1.913       .  S
O3049      C3058   1.280       .  A
O3050     Ni3054   1.913       .  S
O3050      C3057   1.280       .  A
O3051     Ni3054   1.914       .  S
O3051      C3056   1.282       .  A
O3052      C3055   1.282       .  A
C3055      C3085   1.486       .  S
C3056      C3073   1.484       .  S
C3057      C3229   1.488       .  S
O3059     Ni3067   1.913       .  S
O3059      C3069   1.280       .  A
O3060     Ni3067   1.914       .  S
O3060      C3070   1.281       .  A
O3061     Ni3067   1.917       .  S
O3061      C3071   1.281       .  A
O3062     Ni3067   1.916       .  S
O3062      C3072   1.282       .  A
O3063     Ni3068   1.912       .  S
O3063      C3072   1.280       .  A
O3064     Ni3068   1.911       .  S
O3064      C3071   1.281       .  A
O3065     Ni3068   1.916       .  S
O3065      C3070   1.282       .  A
O3066     Ni3068   1.915       .  S
O3066      C3069   1.282       .  A
Ni3067    Ni3068   2.384       .  S
C3069      C3112   1.485       .  S
C3070      C3100   1.486       .  S
C3071      C3220   1.485       .  S
C3072      C3124   1.479       .  S
C3073      C3074   1.404       .  A
C3073      C3078   1.413       .  A
C3074      C3075   1.397       .  A
C3074      H3079   1.083       .  S
C3075      C3076   1.412       .  A
C3075      O3080   1.372       .  S
C3076      C3077   1.406       .  A
C3077      C3078   1.400       .  A
C3077      H3081   1.083       .  S
C3078      O3082   1.372       .  S
O3080      H3084   0.992       .  S
O3082      H3083   0.992       .  S
C3085      C3086   1.406       .  A
C3085      C3090   1.412       .  A
C3086      C3087   1.398       .  A
C3086      H3091   1.083       .  S
C3087      C3088   1.412       .  A
C3087      O3092   1.372       .  S
C3088      C3089   1.406       .  A
C3089      C3090   1.400       .  A
C3089      H3093   1.083       .  S
C3090      O3094   1.371       .  S
O3092      H3096   0.992       .  S
O3094      H3095   0.992       .  S
C3097      C3098   1.405       .  A
C3097      C3102   1.413       .  A
C3098      C3099   1.397       .  A
C3098      H3103   1.083       .  S
C3099      C3100   1.412       .  A
C3099      O3104   1.371       .  S
C3100      C3101   1.406       .  A
C3101      C3102   1.400       .  A
C3101      H3105   1.083       .  S
C3102      O3106   1.372       .  S
O3104      H3108   0.992       .  S
O3106      H3107   0.992       .  S
C3109      C3110   1.406       .  A
C3109      C3114   1.413       .  A
C3110      C3111   1.400       .  A
C3110      H3115   1.083       .  S
C3111      C3112   1.413       .  A
C3111      O3116   1.372       .  S
C3112      C3113   1.404       .  A
C3113      C3114   1.397       .  A
C3113      H3117   1.083       .  S
C3114      O3118   1.372       .  S
O3116      H3120   0.992       .  S
O3118      H3119   0.992       .  S
C3121      C3122   1.404       .  A
C3121      C3126   1.408       .  A
C3122      C3123   1.399       .  A
C3122      H3127   1.084       .  S
C3123      C3124   1.412       .  A
C3123      O3128   1.372       .  S
C3124      C3125   1.405       .  A
C3125      C3126   1.397       .  A
C3125      H3129   1.083       .  S
C3126      O3130   1.372       .  S
O3128      H3132   0.992       .  S
O3130      H3131   0.992       .  S
C3133      C3134   1.404       .  A
C3134      C3135   1.400       .  A
C3134      H3139   1.084       .  S
C3135      C3136   1.412       .  A
C3135      O3140   1.372       .  S
C3137      C3138   1.397       .  A
C3137      H3141   1.084       .  S
C3138      O3142   1.372       .  S
O3140      H3144   0.992       .  S
O3142      H3143   0.992       .  S
C3145      C3146   1.406       .  A
C3145      C3150   1.412       .  A
C3146      C3147   1.398       .  A
C3146      H3151   1.083       .  S
C3147      C3148   1.411       .  A
C3147      O3152   1.372       .  S
C3148      C3149   1.407       .  A
C3149      C3150   1.401       .  A
C3149      H3153   1.083       .  S
C3150      O3154   1.372       .  S
O3152      H3156   0.992       .  S
O3154      H3155   0.992       .  S
C3157      C3158   1.407       .  A
C3157      C3162   1.411       .  A
C3158      C3159   1.402       .  A
C3158      H3163   1.083       .  S
C3159      C3160   1.413       .  A
C3159      O3164   1.372       .  S
C3160      C3161   1.404       .  A
C3161      C3162   1.397       .  A
C3161      H3165   1.083       .  S
C3162      O3166   1.371       .  S
O3164      H3168   0.992       .  S
O3166      H3167   0.992       .  S
C3169      C3174   1.408       .  A
C3170      C3171   1.399       .  A
C3170      H3175   1.084       .  S
C3171      O3176   1.372       .  S
C3172      C3173   1.405       .  A
C3173      C3174   1.399       .  A
C3173      H3177   1.083       .  S
C3174      O3178   1.372       .  S
O3176      H3180   0.992       .  S
O3178      H3179   0.992       .  S
C3181      C3182   1.406   1_545  A
C3182      C3183   1.400       .  A
C3182      H3187   1.083       .  S
C3183      C3184   1.412       .  A
C3183      O3188   1.372       .  S
C3185      C3186   1.400       .  A
C3185      H3189   1.083       .  S
C3186      O3190   1.372       .  S
O3188      H3192   0.992       .  S
O3190      H3191   0.992       .  S
C3193      C3198   1.412       .  A
C3194      C3195   1.399       .  A
C3194      H3199   1.083       .  S
C3195      O3200   1.372       .  S
C3196      C3197   1.406   1_545  A
C3197      C3198   1.400       .  A
C3197      H3201   1.083       .  S
C3198      O3202   1.372       .  S
O3200      H3204   0.992       .  S
O3202      H3203   0.992       .  S
C3205      C3206   1.406   1_545  A
C3206      C3207   1.401       .  A
C3206      H3211   1.083       .  S
C3207      C3208   1.408   1_565  A
C3207      O3212   1.372       .  S
C3209      C3210   1.400       .  A
C3209      H3213   1.084       .  S
C3210      O3214   1.371       .  S
O3212      H3216   0.992       .  S
O3214      H3215   0.992       .  S
C3217      C3218   1.406       .  A
C3217      C3222   1.412       .  A
C3218      C3219   1.399       .  A
C3218      H3223   1.083       .  S
C3219      C3220   1.412       .  A
C3219      O3224   1.371       .  S
C3220      C3221   1.406       .  A
C3221      C3222   1.397       .  A
C3221      H3225   1.083       .  S
C3222      O3226   1.372       .  S
O3224      H3228   0.992       .  S
O3226      H3227   0.992       .  S
C3229      C3230   1.406       .  A
C3230      C3231   1.400       .  A
C3230      H3235   1.083       .  S
C3231      O3236   1.371       .  S
C3232      C3233   1.405       .  A
C3233      C3234   1.399       .  A
C3233      H3237   1.083       .  S
C3234      O3238   1.372       .  S
O3236      H3240   0.992       .  S
O3238      H3239   0.992       .  S
C3241      C3242   1.405       .  A
C3241      C3246   1.413       .  A
C3242      C3243   1.398       .  A
C3242      H3247   1.083       .  S
C3243      C3244   1.413       .  A
C3243      O3248   1.372       .  S
C3244      C3245   1.405       .  A
C3245      C3246   1.399       .  A
C3245      H3249   1.083       .  S
C3246      O3250   1.372       .  S
O3248      H3252   0.992       .  S
O3250      H3251   0.992       .  S
C3253      C3254   1.407       .  A
C3253      C3258   1.411       .  A
C3254      C3255   1.399       .  A
C3254      H3259   1.083       .  S
C3255      C3256   1.411       .  A
C3255      O3260   1.372       .  S
C3256      C3257   1.407       .  A
C3257      C3258   1.398       .  A
C3257      H3261   1.083       .  S
C3258      O3262   1.372       .  S
O3260      H3264   0.992       .  S
O3262      H3263   0.992       .  S
C3265      C3266   1.404       .  A
C3266      C3267   1.398       .  A
C3266      H3271   1.083       .  S
C3267      C3268   1.411       .  A
C3267      O3272   1.372       .  S
C3269      C3270   1.399       .  A
C3269      H3273   1.084       .  S
C3270      O3274   1.372       .  S
O3272      H3276   0.992       .  S
O3274      H3275   0.992       .  S
C3277      C3278   1.407       .  A
C3277      C3282   1.411       .  A
C3278      C3279   1.399       .  A
C3278      H3283   1.083       .  S
C3279      C3280   1.411       .  A
C3279      O3284   1.372       .  S
C3280      C3281   1.407       .  A
C3281      C3282   1.400       .  A
C3281      H3285   1.083       .  S
C3282      O3286   1.371       .  S
O3284      H3288   0.992       .  S
O3286      H3287   0.992       .  S
C3289      C3290   1.407       .  A
C3289      C3294   1.411       .  A
C3290      C3291   1.399       .  A
C3290      H3295   1.083       .  S
C3291      C3292   1.411       .  A
C3291      O3296   1.372       .  S
C3292      C3293   1.406       .  A
C3293      C3294   1.398       .  A
C3293      H3297   1.083       .  S
C3294      O3298   1.372       .  S
O3296      H3300   0.992       .  S
O3298      H3299   0.992       .  S
C3302      C3303   1.398       .  A
C3302      H3307   1.083       .  S
C3303      O3308   1.371       .  S
C3305      C3306   1.400       .  A
C3305      H3309   1.084       .  S
C3306      O3310   1.372       .  S
O3308      H3312   0.992   1_545  S
O3310      H3311   0.992       .  S
C3313      C3314   1.401       .  A
C3313      C3318   1.404       .  A
C3314      C3315   1.397   1_554  A
C3314      H3319   1.084       .  S
C3315      C3316   1.412       .  A
C3315      O3320   1.372       .  S
C3316      C3317   1.407       .  A
C3317      C3318   1.397   1_556  A
C3317      H3321   1.083       .  S
C3318      O3322   1.372       .  S
O3320      H3324   0.992       .  S
O3322      H3323   0.992       .  S
C3325      C3326   1.405       .  A
C3325      C3330   1.413       .  A
C3326      C3327   1.399       .  A
C3326      H3331   1.083       .  S
C3327      C3328   1.412       .  A
C3327      O3332   1.371       .  S
C3328      C3329   1.406       .  A
C3329      C3330   1.399       .  A
C3329      H3333   1.083       .  S
C3330      O3334   1.372       .  S
O3332      H3336   0.992       .  S
O3334      H3335   0.992       .  S
C3337      C3338   1.405       .  A
C3337      C3342   1.413       .  A
C3338      C3339   1.399       .  A
C3338      H3343   1.083       .  S
C3339      C3340   1.412       .  A
C3339      O3344   1.372       .  S
C3340      C3341   1.405       .  A
C3341      C3342   1.399       .  A
C3341      H3345   1.083       .  S
C3342      O3346   1.372       .  S
O3344      H3348   0.992       .  S
O3346      H3347   0.992       .  S
C3349      C3354   1.410       .  A
C3350      C3351   1.400   1_556  A
C3350      H3355   1.084       .  S
C3351      O3356   1.371       .  S
C3352      C3353   1.405       .  A
C3353      C3354   1.399   1_554  A
C3353      H3357   1.084       .  S
C3354      O3358   1.372       .  S
O3356      H3360   0.992       .  S
O3358      H3359   0.992       .  S
C3361      C3362   1.402       .  A
C3362      C3363   1.399   1_556  A
C3362      H3367   1.084       .  S
C3363      C3364   1.412       .  A
C3363      O3368   1.371       .  S
C3365      C3366   1.400   1_554  A
C3365      H3369   1.083       .  S
C3366      O3370   1.372       .  S
O3368      H3372   0.992       .  S
O3370      H3371   0.992       .  S
C3373      C3374   1.405       .  A
C3374      C3375   1.398       .  A
C3374      H3379   1.083       .  S
C3375      C3376   1.412       .  A
C3375      O3380   1.372       .  S
C3377      C3378   1.398       .  A
C3377      H3381   1.083       .  S
C3378      O3382   1.372       .  S
O3380      H3384   0.992       .  S
O3382      H3383   0.992       .  S
C3385      C3386   1.406       .  A
C3386      C3387   1.399       .  A
C3386      H3391   1.083       .  S
C3387      C3388   1.412       .  A
C3387      O3392   1.372       .  S
C3389      C3390   1.399       .  A
C3389      H3393   1.083       .  S
C3390      O3394   1.372       .  S
O3392      H3396   0.992       .  S
O3394      H3395   0.992       .  S
C3398      C3399   1.400   1_554  A
C3398      H3403   1.084       .  S
C3399      C3400   1.412       .  A
C3399      O3404   1.372       .  S
C3401      C3402   1.398   1_556  A
C3401      H3405   1.083       .  S
C3402      O3406   1.372       .  S
O3404      H3408   0.992       .  S
O3406      H3407   0.992       .  S
C3409      C3410   1.405       .  A
C3409      C3414   1.413       .  A
C3410      C3411   1.399       .  A
C3410      H3415   1.083       .  S
C3411      C3412   1.413       .  A
C3411      O3416   1.372       .  S
C3412      C3413   1.406       .  A
C3413      C3414   1.401       .  A
C3413      H3417   1.083       .  S
C3414      O3418   1.371       .  S
O3416      H3420   0.992       .  S
O3418      H3419   0.992       .  S
C3421      C3422   1.407   1_545  A
C3422      C3423   1.400       .  A
C3422      H3427   1.083       .  S
C3423      C3424   1.412       .  A
C3423      O3428   1.372       .  S
C3425      C3426   1.396       .  A
C3425      H3429   1.083       .  S
C3426      O3430   1.372       .  S
O3428      H3432   0.992       .  S
O3430      H3431   0.992       .  S
C3433      C3438   1.412       .  A
C3434      C3435   1.399       .  A
C3434      H3439   1.083       .  S
C3435      O3440   1.372       .  S
C3436      C3437   1.407       .  A
C3437      C3438   1.401       .  A
C3437      H3441   1.083       .  S
C3438      O3442   1.372       .  S
O3440      H3444   0.992       .  S
O3442      H3443   0.992       .  S
C3445      C3446   1.406       .  A
C3445      C3450   1.413       .  A
C3446      C3447   1.399       .  A
C3446      H3451   1.083       .  S
C3447      C3448   1.412       .  A
C3447      O3452   1.372       .  S
C3448      C3449   1.407       .  A
C3449      C3450   1.401       .  A
C3449      H3453   1.083       .  S
C3450      O3454   1.372       .  S
O3452      H3456   0.992       .  S
O3454      H3455   0.992       .  S
C3457      C3458   1.404       .  A
C3457      C3462   1.412       .  A
C3458      C3459   1.398       .  A
C3458      H3463   1.083       .  S
C3459      C3460   1.412       .  A
C3459      O3464   1.372       .  S
C3460      C3461   1.405       .  A
C3461      C3462   1.401       .  A
C3461      H3465   1.084       .  S
C3462      O3466   1.372       .  S
O3464      H3468   0.992       .  S
O3466      H3467   0.992       .  S
C3470      C3471   1.398       .  A
C3470      H3475   1.084       .  S
C3471      O3476   1.372       .  S
C3473      C3474   1.402       .  A
C3473      H3477   1.083       .  S
C3474      O3478   1.372       .  S
O3476      H3480   0.992       .  S
O3478      H3479   0.992       .  S
C3481      C3482   1.407   1_545  A
C3482      C3483   1.400       .  A
C3482      H3487   1.083       .  S
C3483      C3484   1.411   1_565  A
C3483      O3488   1.372       .  S
C3485      C3486   1.398       .  A
C3485      H3489   1.083       .  S
C3486      O3490   1.372       .  S
O3488      H3492   0.992       .  S
O3490      H3491   0.992       .  S
C3493      C3498   1.412   1_545  A
C3494      C3495   1.400       .  A
C3494      H3499   1.083       .  S
C3495      O3500   1.372       .  S
C3496      C3497   1.404   1_545  A
C3497      C3498   1.398       .  A
C3497      H3501   1.083       .  S
C3498      O3502   1.372       .  S
O3500      H3504   0.992       .  S
O3502      H3503   0.992       .  S
C3505      C3506   1.408       .  A
C3505      C3510   1.410       .  A
C3506      C3507   1.401       .  A
C3506      H3511   1.083       .  S
C3507      C3508   1.411       .  A
C3507      O3512   1.372       .  S
C3508      C3509   1.405       .  A
C3509      C3510   1.395       .  A
C3509      H3513   1.083       .  S
C3510      O3514   1.372       .  S
O3512      H3516   0.992       .  S
O3514      H3515   0.992       .  S
C3517      C3518   1.404       .  A
C3517      C3522   1.411       .  A
C3518      C3519   1.401       .  A
C3518      H3523   1.084       .  S
C3519      C3520   1.411       .  A
C3519      O3524   1.371       .  S
C3520      C3521   1.404       .  A
C3521      C3522   1.401       .  A
C3521      H3525   1.084       .  S
C3522      O3526   1.372       .  S
O3524      H3528   0.992       .  S
O3526      H3527   0.992       .  S
C3529      C3530   1.407       .  A
C3529      C3534   1.411       .  A
C3530      C3531   1.400       .  A
C3530      H3535   1.083       .  S
C3531      C3532   1.412       .  A
C3531      O3536   1.372       .  S
C3532      C3533   1.406       .  A
C3533      C3534   1.397       .  A
C3533      H3537   1.083       .  S
C3534      O3538   1.372       .  S
O3536      H3540   0.992       .  S
O3538      H3539   0.992       .  S
C3541      C3542   1.407       .  A
C3541      C3546   1.411       .  A
C3542      C3543   1.400       .  A
C3542      H3547   1.083       .  S
C3543      C3544   1.412       .  A
C3543      O3548   1.372       .  S
C3544      C3545   1.406       .  A
C3545      C3546   1.397       .  A
C3545      H3549   1.083       .  S
C3546      O3550   1.372       .  S
O3548      H3552   0.992       .  S
O3550      H3551   0.992       .  S
C3553      C3554   1.407       .  A
C3554      C3555   1.401       .  A
C3554      H3559   1.083       .  S
C3555      C3556   1.411       .  A
C3555      O3560   1.371       .  S
C3557      C3558   1.398       .  A
C3557      H3561   1.083       .  S
C3558      O3562   1.372       .  S
O3560      H3564   0.992       .  S
O3562      H3563   0.992       .  S
C3565      C3570   1.410   1_545  A
C3566      C3567   1.399       .  A
C3566      H3571   1.084       .  S
C3567      O3572   1.372       .  S
C3568      C3569   1.404   1_545  A
C3569      C3570   1.399       .  A
C3569      H3573   1.084       .  S
C3570      O3574   1.372       .  S
O3572      H3576   0.992       .  S
O3574      H3575   0.992       .  S
C3577      C3582   1.412       .  A
C3578      C3579   1.398       .  A
C3578      H3583   1.083       .  S
C3579      O3584   1.372       .  S
C3580      C3581   1.406       .  A
C3581      C3582   1.399       .  A
C3581      H3585   1.083       .  S
C3582      O3586   1.372       .  S
O3584      H3588   0.992       .  S
O3586      H3587   0.992       .  S
C3589      C3594   1.409       .  A
C3590      C3591   1.400       .  A
C3590      H3595   1.084       .  S
C3591      O3596   1.372       .  S
C3592      C3593   1.404       .  A
C3593      C3594   1.396       .  A
C3593      H3597   1.084       .  S
C3594      O3598   1.372       .  S
O3596      H3600   0.992       .  S
O3598      H3599   0.992       .  S
C3601      C3606   1.411       .  A
C3602      C3603   1.402       .  A
C3602      H3607   1.083       .  S
C3603      O3608   1.372       .  S
C3604      C3605   1.405       .  A
C3605      C3606   1.398       .  A
C3605      H3609   1.083       .  S
C3606      O3610   1.372       .  S
O3608      H3612   0.992       .  S
O3610      H3611   0.992       .  S
C3613      C3618   1.412       .  A
C3614      C3615   1.397       .  A
C3614      H3619   1.083       .  S
C3615      O3620   1.372       .  S
C3616      C3617   1.406       .  A
C3617      C3618   1.401       .  A
C3617      H3621   1.083       .  S
C3618      O3622   1.372       .  S
O3620      H3624   0.992       .  S
O3622      H3623   0.992       .  S
C3626      C3627   1.398       .  A
C3626      H3631   1.084       .  S
C3627      O3632   1.372       .  S
C3629      C3630   1.403       .  A
C3629      H3633   1.084       .  S
C3630      O3634   1.372       .  S
O3632      H3636   0.992       .  S
O3634      H3635   0.992       .  S
C3637      C3642   1.405   1_445  A
C3638      C3639   1.402       .  A
C3638      H3643   1.084       .  S
C3639      O3644   1.372       .  S
C3640      C3641   1.406   1_445  A
C3641      C3642   1.396       .  A
C3641      H3645   1.083       .  S
C3642      O3646   1.372       .  S
O3644      H3648   0.992       .  S
O3646      H3647   0.992       .  S
