geometry optimzed in LAMMPS
_audit_creation_date              2020-12-01 
_audit_creation_method            'lammps2cif' 
_symmetry_space_group_name_H-M    'P1' 
_symmetry_Int_Tables_number       1 
_symmetry_cell_setting            triclinic 
loop_ 
_symmetry_equiv_pos_as_xyz 
  x,y,z 
_cell_length_a                    52.21329407 
_cell_length_b                    52.07679449866603 
_cell_length_c                    31.273244661223035 
_cell_angle_alpha                 90.1424544179022 
_cell_angle_beta                  89.95383937462259 
_cell_angle_gamma                 120.05230279318035 
loop_ 
_atom_site_label 
_atom_site_type_symbol 
_atom_site_fract_x 
_atom_site_fract_y 
_atom_site_fract_z 
_atom_site_charge 
O1          O  0.29613319  0.01621816  0.45840668    -0.55300
C2          C  0.25693819  0.46022729  0.55780089     0.77300
O3          O  0.22254261  0.02072464  0.53486976    -0.56500
C4          C  0.29547282  0.03767288  0.44068324     0.77300
C5          C  0.20291017  0.46091749  0.44159903     0.79600
Cd6        Cd  0.24983204  0.99908305  0.49945453     1.37500
O7          O  0.27896140  0.48129591  0.53939850    -0.55300
O8          O  0.22776724  0.46229484  0.44115407    -0.54200
C9          C  0.24408543  0.03892787  0.55756896     0.79600
O10         O  0.19948320  0.47710113  0.46851284    -0.56500
O11         O  0.23182532  0.45689060  0.54924357    -0.55000
O12         O  0.27388315  0.04127326  0.44970837    -0.55000
O13         O  0.26810293  0.03882207  0.55360216    -0.54100
O14         O  0.30221770  0.27324894  0.85814772    -0.55300
C15         C  0.25790672  0.29670705  0.77599119     0.77300
O16         O  0.22128813  0.20123023  0.79685802    -0.56500
C17         C  0.29653808  0.25589798  0.88942046     0.77300
C18         C  0.20538776  0.24522738  0.89084468     0.79600
Cd19       Cd  0.25053429  0.25009267  0.83272694     1.37500
O20         O  0.27763879  0.30081586  0.80294901    -0.55300
O21         O  0.22867072  0.26972675  0.88407763    -0.54200
C22         C  0.24279075  0.20319124  0.77558623     0.79600
O23         O  0.20268154  0.22284303  0.87088283    -0.56500
O24         O  0.23493281  0.27136268  0.77517618    -0.55000
O25         O  0.26984195  0.23612451  0.89481486    -0.55000
O26         O  0.26751750  0.22646731  0.78052585    -0.54100
O27         O  0.47434206  0.27447510  0.13506978    -0.55300
C28         C  0.03696402  0.29626875  0.22511386     0.77300
O29         O  0.47660853  0.19810780  0.19537981    -0.56500
C30         C  0.45901966  0.25404118  0.10868282     0.77300
C31         C  0.04146665  0.24687437  0.10922158     0.79600
Cd32       Cd  0.49935746  0.24938998  0.16659534     1.37500
O33         O  0.01935576  0.29895849  0.20031881    -0.55300
O34         O  0.03606279  0.26794528  0.10794670    -0.54200
C35         C  0.45969754  0.20102891  0.22140993     0.79600
O36         O  0.02774700  0.22701012  0.13697748    -0.56500
O37         O  0.03721804  0.27216759  0.22319765    -0.55000
O38         O  0.46204291  0.23144088  0.10903411    -0.55000
O39         O  0.46095618  0.22587948  0.22213702    -0.54100
C40         C  0.10088182  0.24332431  0.02768891     0.19500
C41         C  0.09728583  0.24339700  0.98327989    -0.09600
C42         C  0.11807969  0.24269382  0.95572410    -0.10500
C43         C  0.14259387  0.24190918  0.97240372     0.21100
C44         C  0.14608593  0.24164711  0.01680772    -0.12500
C45         C  0.12529334  0.24234771  0.04436013    -0.10800
C46         C  0.16445553  0.24208058  0.94396839     0.02000
C47         C  0.18299051  0.24305156  0.91983620    -0.30800
C48         C  0.07972707  0.24448204  0.05617280     0.03400
C49         C  0.06223752  0.24555634  0.08035317    -0.32500
H50         H  0.07851522  0.24414879  0.96997329     0.14500
H51         H  0.11515750  0.24296318  0.92148481     0.14300
H52         H  0.16496321  0.24110213  0.03011904     0.14100
H53         H  0.12832435  0.24228225  0.07859890     0.13200
C54         C  0.40124628  0.25923584  0.02624610     0.19500
C55         C  0.40592718  0.26045119  0.98198337    -0.09600
C56         C  0.38525833  0.26087502  0.95397178    -0.10500
C57         C  0.35983439  0.26009529  0.97012434     0.21100
C58         C  0.35528515  0.25912721  0.01438393    -0.12500
C59         C  0.37594294  0.25870460  0.04238034    -0.10800
C60         C  0.33808295  0.25957588  0.94134542     0.02000
C61         C  0.31936733  0.25834752  0.91750454    -0.30800
C62         C  0.42204421  0.25795205  0.05511028     0.03400
C63         C  0.43904534  0.25636419  0.07956037    -0.32500
H64         H  0.42540202  0.26083505  0.96914607     0.14500
H65         H  0.38896447  0.26156606  0.91981521     0.14300
H66         H  0.33567299  0.25845778  0.02721849     0.14100
H67         H  0.37208371  0.25772968  0.07651685     0.13200
C68         C  0.09467090  0.36150262  0.30561594     0.19500
C69         C  0.08866890  0.36140453  0.34932893    -0.09600
C70         C  0.11013149  0.38255006  0.37667922    -0.10500
C71         C  0.13771815  0.40390416  0.36046867     0.21100
C72         C  0.14357740  0.40421346  0.31667291    -0.12500
C73         C  0.12212318  0.38308040  0.28933384    -0.10800
C74         C  0.16031914  0.42481029  0.38893787     0.02000
C75         C  0.17958654  0.44163441  0.41293577    -0.30800
C76         C  0.07318614  0.33890765  0.27768831     0.03400
C77         C  0.05613054  0.31961757  0.25388306    -0.32500
H78         H  0.06756865  0.34478252  0.36233967     0.14500
H79         H  0.10536469  0.38202417  0.41047250     0.14300
H80         H  0.16484367  0.42054786  0.30375704     0.14100
H81         H  0.12706538  0.38333310  0.25565222     0.13200
C82         C  0.35897252  0.09496536  0.35808985     0.19500
C83         C  0.38842623  0.11275645  0.37128272    -0.09600
C84         C  0.40948951  0.13339309  0.34308146    -0.10500
C85         C  0.40121186  0.13633597  0.30154325     0.21100
C86         C  0.37178828  0.11844776  0.28833696    -0.12500
C87         C  0.35074458  0.09783121  0.31651382    -0.10800
C88         C  0.42259262  0.15825976  0.27286280     0.02000
C89         C  0.43985834  0.17730270  0.24903925    -0.31400
C90         C  0.33705413  0.07421087  0.38734166     0.03400
C91         C  0.31825938  0.05723466  0.41167920    -0.32500
H92         H  0.39504165  0.11081903  0.40338075     0.14500
H93         H  0.43213871  0.14718893  0.35375302     0.14300
H94         H  0.36507938  0.12059994  0.25640823     0.14100
H95         H  0.32802690  0.08427619  0.30597789     0.13200
C96         C  0.23841876  0.13968920  0.69447451     0.19500
C97         C  0.22301978  0.10950670  0.70511603    -0.09600
C98         C  0.22353610  0.08859379  0.67746886    -0.10500
C99         C  0.23946144  0.09778190  0.63908030     0.21100
C100        C  0.25487066  0.12796452  0.62848183    -0.12500
C101        C  0.25435360  0.14885974  0.65610647    -0.10800
C102        C  0.24022650  0.07637640  0.61065337     0.02000
C103        C  0.24154126  0.05898501  0.58648988    -0.30800
C104        C  0.23839164  0.16133666  0.72318734     0.03400
C105        C  0.23954654  0.18005848  0.74717482    -0.32500
H106        H  0.21072908  0.10217883  0.73477584     0.14500
H107        H  0.21159746  0.06531722  0.68604621     0.14300
H108        H  0.26731447  0.13533079  0.59895097     0.14100
H109        H  0.26644706  0.17215527  0.64762664     0.13200
C110        C  0.26223856  0.40231353  0.63987997     0.19500
C111        C  0.28216622  0.41157424  0.67421513    -0.09600
C112        C  0.28248354  0.39058257  0.70175306    -0.10500
C113        C  0.26286812  0.36026752  0.69504431     0.21100
C114        C  0.24295017  0.35104318  0.66073926    -0.12500
C115        C  0.24263070  0.37200376  0.63324304    -0.10800
C116        C  0.26266054  0.33858827  0.72371890     0.02000
C117        C  0.26120971  0.31979639  0.74766205    -0.30800
C118        C  0.26167994  0.42374364  0.61146375     0.03400
C119        C  0.26014460  0.44082698  0.58707142    -0.32500
H120        H  0.29738479  0.43496409  0.67971424     0.14500
H121        H  0.29789684  0.39796229  0.72827735     0.14300
H122        H  0.22760366  0.32766384  0.65534595     0.14100
H123        H  0.22708856  0.36459597  0.60687805     0.13200
O124        O  0.29613300  0.51621794  0.45840638    -0.55300
C125        C  0.25693816  0.96022730  0.55780088     0.77300
O126        O  0.22254250  0.52072462  0.53486973    -0.56500
C127        C  0.29547285  0.53767287  0.44068327     0.77300
C128        C  0.20291025  0.96091734  0.44159911     0.79600
Cd129      Cd  0.24983194  0.49908305  0.49945453     1.37500
O130        O  0.27896136  0.98129573  0.53939818    -0.55300
O131        O  0.22776728  0.96229461  0.44115434    -0.54200
C132        C  0.24408531  0.53892784  0.55756898     0.79600
O133        O  0.19948331  0.97710110  0.46851276    -0.56500
O134        O  0.23182533  0.95689080  0.54924389    -0.55000
O135        O  0.27388337  0.54127348  0.44970870    -0.55000
O136        O  0.26810283  0.53882208  0.55360215    -0.54100
O137        O  0.30221762  0.77324891  0.85814778    -0.55300
C138        C  0.25790660  0.79670689  0.77599118     0.77300
O139        O  0.22128798  0.70123033  0.79685772    -0.56500
C140        C  0.29653799  0.75589790  0.88942046     0.77300
C141        C  0.20538777  0.74522740  0.89084468     0.79600
Cd142      Cd  0.25053425  0.75009264  0.83272694     1.37500
O143        O  0.27763867  0.80081569  0.80294899    -0.55300
O144        O  0.22867066  0.76972680  0.88407737    -0.54200
C145        C  0.24279065  0.70319120  0.77558623     0.79600
O146        O  0.20268165  0.72284298  0.87088313    -0.56500
O147        O  0.23493269  0.77136252  0.77517613    -0.55000
O148        O  0.26984186  0.73612438  0.89481479    -0.55000
O149        O  0.26751749  0.72646710  0.78052621    -0.54100
O150        O  0.47434233  0.77447535  0.13506949    -0.55300
C151        C  0.03696393  0.79626866  0.22511392     0.77300
O152        O  0.47660849  0.69810784  0.19537980    -0.56500
C153        C  0.45901975  0.75404130  0.10868283     0.77300
C154        C  0.04146663  0.74687438  0.10922150     0.79600
Cd155      Cd  0.49935746  0.74939002  0.16659533     1.37500
O156        O  0.01935558  0.79895838  0.20031906    -0.55300
O157        O  0.03606276  0.76794529  0.10794670    -0.54200
C158        C  0.45969753  0.70102898  0.22140993     0.79600
O159        O  0.02774700  0.72701014  0.13697743    -0.56500
O160        O  0.03721808  0.77216757  0.22319741    -0.55000
O161        O  0.46204283  0.73144090  0.10903438    -0.55000
O162        O  0.46095622  0.72587958  0.22213704    -0.54100
C163        C  0.10088172  0.74332416  0.02768885     0.19500
C164        C  0.09728563  0.74339661  0.98327984    -0.09600
C165        C  0.11807959  0.74269359  0.95572408    -0.10500
C166        C  0.14259387  0.74190919  0.97240373     0.21100
C167        C  0.14608611  0.74164734  0.01680780    -0.12500
C168        C  0.12529341  0.74234791  0.04436011    -0.10800
C169        C  0.16445554  0.74208060  0.94396840     0.02000
C170        C  0.18299052  0.74305160  0.91983617    -0.30800
C171        C  0.07972698  0.74448201  0.05617262     0.03400
C172        C  0.06223744  0.74555635  0.08035299    -0.32500
H173        H  0.07851492  0.74414821  0.96997320     0.14500
H174        H  0.11515737  0.74296288  0.92148484     0.14300
H175        H  0.16496307  0.74110260  0.03011882     0.14100
H176        H  0.12832455  0.74228272  0.07859891     0.13200
C177        C  0.40124626  0.75923585  0.02624622     0.19500
C178        C  0.40592734  0.76045142  0.98198356    -0.09600
C179        C  0.38525853  0.76087523  0.95397182    -0.10500
C180        C  0.35983444  0.76009530  0.97012428     0.21100
C181        C  0.35528504  0.75912702  0.01438384    -0.12500
C182        C  0.37594281  0.75870442  0.04238038    -0.10800
C183        C  0.33808297  0.75957584  0.94134528     0.02000
C184        C  0.31936725  0.75834740  0.91750450    -0.30800
C185        C  0.42204416  0.75795206  0.05511049     0.03400
C186        C  0.43904534  0.75636423  0.07956046    -0.32500
H187        H  0.42540231  0.76083545  0.96914635     0.14500
H188        H  0.38896479  0.76156641  0.91981550     0.14300
H189        H  0.33567280  0.75845749  0.02721835     0.14100
H190        H  0.37208350  0.75772943  0.07651672     0.13200
C191        C  0.09467094  0.86150242  0.30561611     0.19500
C192        C  0.08866899  0.86140436  0.34932908    -0.09600
C193        C  0.11013152  0.88254983  0.37667957    -0.10500
C194        C  0.13771824  0.90390385  0.36046890     0.21100
C195        C  0.14357760  0.90421320  0.31667312    -0.12500
C196        C  0.12212324  0.88308016  0.28933426    -0.10800
C197        C  0.16031922  0.92481000  0.38893806     0.02000
C198        C  0.17958663  0.94163422  0.41293588    -0.30800
C199        C  0.07318609  0.83890750  0.27768848     0.03400
C200        C  0.05613043  0.81961741  0.25388327    -0.32500
H201        H  0.06756842  0.84478218  0.36233998     0.14500
H202        H  0.10536484  0.88202403  0.41047188     0.14300
H203        H  0.16484346  0.92054721  0.30375763     0.14100
H204        H  0.12706565  0.88333290  0.25565153     0.13200
C205        C  0.35897256  0.59496540  0.35808993     0.19500
C206        C  0.38842624  0.61275654  0.37128292    -0.09600
C207        C  0.40948958  0.63339329  0.34308169    -0.10500
C208        C  0.40121188  0.63633609  0.30154338     0.21100
C209        C  0.37178833  0.61844782  0.28833706    -0.12500
C210        C  0.35074469  0.59783123  0.31651389    -0.10800
C211        C  0.42259263  0.65825983  0.27286284     0.02000
C212        C  0.43985832  0.67730277  0.24903924    -0.31400
C213        C  0.33705417  0.57421092  0.38734177     0.03400
C214        C  0.31825945  0.55723466  0.41167928    -0.32500
H215        H  0.39504159  0.61081915  0.40338075     0.14500
H216        H  0.43213833  0.64718891  0.35375308     0.14300
H217        H  0.36507943  0.62060001  0.25640831     0.14100
H218        H  0.32802675  0.58427604  0.30597781     0.13200
C219        C  0.23841864  0.63968918  0.69447450     0.19500
C220        C  0.22301959  0.60950664  0.70511612    -0.09600
C221        C  0.22353610  0.58859386  0.67746892    -0.10500
C222        C  0.23946137  0.59778186  0.63908035     0.21100
C223        C  0.25487039  0.62796445  0.62848184    -0.12500
C224        C  0.25435340  0.64885980  0.65610630    -0.10800
C225        C  0.24022644  0.57637638  0.61065344     0.02000
C226        C  0.24154113  0.55898494  0.58648995    -0.30800
C227        C  0.23839156  0.66133666  0.72318732     0.03400
C228        C  0.23954640  0.68005846  0.74717477    -0.32500
H229        H  0.21072911  0.60217895  0.73477529     0.14500
H230        H  0.21159723  0.56531674  0.68604660     0.14300
H231        H  0.26731440  0.63533090  0.59895027     0.14100
H232        H  0.26644642  0.67215468  0.64762663     0.13200
C233        C  0.26223846  0.90231349  0.63987990     0.19500
C234        C  0.28216600  0.91157422  0.67421523    -0.09600
C235        C  0.28248326  0.89058252  0.70175302    -0.10500
C236        C  0.26286807  0.86026747  0.69504425     0.21100
C237        C  0.24295027  0.85104310  0.66073894    -0.12500
C238        C  0.24263084  0.87200372  0.63324278    -0.10800
C239        C  0.26266045  0.83858818  0.72371888     0.02000
C240        C  0.26120961  0.81979629  0.74766205    -0.30800
C241        C  0.26167978  0.92374362  0.61146378     0.03400
C242        C  0.26014453  0.94082699  0.58707144    -0.32500
H243        H  0.29738440  0.93496408  0.67971446     0.14500
H244        H  0.29789682  0.89796245  0.72827809     0.14300
H245        H  0.22760396  0.82766384  0.65534552     0.14100
H246        H  0.22708867  0.86459586  0.60687745     0.13200
O247        O  0.79613318  0.01621816  0.45840667    -0.55300
C248        C  0.75693822  0.46022724  0.55780088     0.77300
O249        O  0.72254263  0.02072480  0.53486943    -0.56500
C250        C  0.79547289  0.03767292  0.44068325     0.77300
C251        C  0.70291022  0.46091748  0.44159901     0.79600
Cd252      Cd  0.74983198  0.99908305  0.49945452     1.37500
O253        O  0.77896142  0.48129590  0.53939852    -0.55300
O254        O  0.72776729  0.46229484  0.44115406    -0.54200
C255        C  0.74408539  0.03892786  0.55756889     0.79600
O256        O  0.69948324  0.47710113  0.46851283    -0.56500
O257        O  0.73182533  0.45689046  0.54924351    -0.55000
O258        O  0.77388328  0.04127339  0.44970842    -0.55000
O259        O  0.76810283  0.03882192  0.55360230    -0.54100
O260        O  0.80221761  0.27324875  0.85814767    -0.55300
C261        C  0.75790664  0.29670693  0.77599119     0.77300
O262        O  0.72128815  0.20123012  0.79685808    -0.56500
C263        C  0.79653796  0.25589781  0.88942043     0.77300
C264        C  0.70538776  0.24522739  0.89084470     0.79600
Cd265      Cd  0.75053418  0.25009262  0.83272691     1.37500
O266        O  0.77763873  0.30081567  0.80294893    -0.55300
O267        O  0.72867076  0.26972674  0.88407766    -0.54200
C268        C  0.74279074  0.20319118  0.77558614     0.79600
O269        O  0.70268145  0.22284302  0.87088277    -0.56500
O270        O  0.73493267  0.27136262  0.77517620    -0.55000
O271        O  0.76984181  0.23612438  0.89481486    -0.55000
O272        O  0.76751746  0.22646730  0.78052562    -0.54100
O273        O  0.97434218  0.27447530  0.13506975    -0.55300
C274        C  0.53696406  0.29626874  0.22511377     0.77300
O275        O  0.97660857  0.19810783  0.19537983    -0.56500
C276        C  0.95901980  0.25404136  0.10868281     0.77300
C277        C  0.54146659  0.24687426  0.10922148     0.79600
Cd278      Cd  0.99935739  0.24939001  0.16659535     1.37500
O279        O  0.51935578  0.29895849  0.20031880    -0.55300
O280        O  0.53606282  0.26794523  0.10794666    -0.54200
C281        C  0.95969750  0.20102892  0.22140984     0.79600
O282        O  0.52774701  0.22701007  0.13697748    -0.56500
O283        O  0.53721814  0.27216761  0.22319744    -0.55000
O284        O  0.96204306  0.23144107  0.10903412    -0.55000
O285        O  0.96095600  0.22587942  0.22213675    -0.54100
C286        C  0.60088176  0.24332416  0.02768891     0.19500
C287        C  0.59728556  0.24339675  0.98327983    -0.09600
C288        C  0.61807959  0.24269365  0.95572409    -0.10500
C289        C  0.64259390  0.24190930  0.97240370     0.21100
C290        C  0.64608614  0.24164733  0.01680779    -0.12500
C291        C  0.62529332  0.24234774  0.04436008    -0.10800
C292        C  0.66445557  0.24208063  0.94396841     0.02000
C293        C  0.68299055  0.24305159  0.91983626    -0.30800
C294        C  0.57972702  0.24448195  0.05617277     0.03400
C295        C  0.56223741  0.24555618  0.08035302    -0.32500
H296        H  0.57851548  0.24414839  0.96997371     0.14500
H297        H  0.61515726  0.24296285  0.92148483     0.14300
H298        H  0.66496289  0.24110256  0.03011867     0.14100
H299        H  0.62832442  0.24228237  0.07859901     0.13200
C300        C  0.90124630  0.25923587  0.02624610     0.19500
C301        C  0.90592730  0.26045135  0.98198336    -0.09600
C302        C  0.88525834  0.26087509  0.95397179    -0.10500
C303        C  0.85983437  0.26009526  0.97012431     0.21100
C304        C  0.85528495  0.25912705  0.01438397    -0.12500
C305        C  0.87594294  0.25870455  0.04238032    -0.10800
C306        C  0.83808291  0.25957583  0.94134534     0.02000
C307        C  0.81936722  0.25834734  0.91750448    -0.30800
C308        C  0.92204425  0.25795206  0.05511027     0.03400
C309        C  0.93904542  0.25636427  0.07956037    -0.32500
H310        H  0.92540198  0.26083534  0.96914618     0.14500
H311        H  0.88896453  0.26156617  0.91981525     0.14300
H312        H  0.83567333  0.25845752  0.02721814     0.14100
H313        H  0.87208367  0.25772963  0.07651682     0.13200
C314        C  0.59467105  0.36150261  0.30561579     0.19500
C315        C  0.58866900  0.36140454  0.34932874    -0.09600
C316        C  0.61013150  0.38255005  0.37667926    -0.10500
C317        C  0.63771820  0.40390411  0.36046866     0.21100
C318        C  0.64357769  0.40421353  0.31667282    -0.12500
C319        C  0.62212329  0.38308039  0.28933398    -0.10800
C320        C  0.66031918  0.42481020  0.38893793     0.02000
C321        C  0.67958658  0.44163437  0.41293579    -0.30800
C322        C  0.57318626  0.33890767  0.27768814     0.03400
C323        C  0.55613060  0.31961755  0.25388299    -0.32500
H324        H  0.56756850  0.34478241  0.36233955     0.14500
H325        H  0.60536477  0.38202419  0.41047160     0.14300
H326        H  0.66484309  0.42054719  0.30375764     0.14100
H327        H  0.62706576  0.38333318  0.25565119     0.13200
C328        C  0.85897257  0.09496536  0.35808978     0.19500
C329        C  0.88842621  0.11275654  0.37128270    -0.09600
C330        C  0.90948961  0.13339322  0.34308146    -0.10500
C331        C  0.90121188  0.13633593  0.30154313     0.21100
C332        C  0.87178832  0.11844770  0.28833681    -0.12500
C333        C  0.85074457  0.09783108  0.31651368    -0.10800
C334        C  0.92259267  0.15825977  0.27286274     0.02000
C335        C  0.93985838  0.17730274  0.24903922    -0.31400
C336        C  0.83705418  0.07421087  0.38734163     0.03400
C337        C  0.81825946  0.05723466  0.41167919    -0.32500
H338        H  0.89504165  0.11081923  0.40338072     0.14500
H339        H  0.93213816  0.14718873  0.35375274     0.14300
H340        H  0.86507943  0.12059983  0.25640821     0.14100
H341        H  0.82802722  0.08427619  0.30597790     0.13200
C342        C  0.73841871  0.13968912  0.69447448     0.19500
C343        C  0.72301965  0.10950657  0.70511606    -0.09600
C344        C  0.72353617  0.08859386  0.67746875    -0.10500
C345        C  0.73946144  0.09778189  0.63908022     0.21100
C346        C  0.75487049  0.12796448  0.62848180    -0.12500
C347        C  0.75435352  0.14885983  0.65610629    -0.10800
C348        C  0.74022653  0.07637641  0.61065333     0.02000
C349        C  0.74154122  0.05898499  0.58648984    -0.30800
C350        C  0.73839159  0.16133655  0.72318736     0.03400
C351        C  0.73954648  0.18005841  0.74717476    -0.32500
H352        H  0.71072925  0.10217887  0.73477510     0.14500
H353        H  0.71159723  0.06531656  0.68604641     0.14300
H354        H  0.76731460  0.13533099  0.59895016     0.14100
H355        H  0.76644647  0.17215455  0.64762674     0.13200
C356        C  0.76223860  0.40231350  0.63987994     0.19500
C357        C  0.78216595  0.41157429  0.67421555    -0.09600
C358        C  0.78248317  0.39058257  0.70175330    -0.10500
C359        C  0.76286822  0.36026755  0.69504439     0.21100
C360        C  0.74295056  0.35104314  0.66073889    -0.12500
C361        C  0.74263113  0.37200373  0.63324273    -0.10800
C362        C  0.76266056  0.33858829  0.72371908     0.02000
C363        C  0.76120966  0.31979636  0.74766215    -0.30800
C364        C  0.76167998  0.42374362  0.61146375     0.03400
C365        C  0.76014467  0.44082698  0.58707143    -0.32500
H366        H  0.79738413  0.43496404  0.67971490     0.14500
H367        H  0.79789679  0.39796263  0.72827894     0.14300
H368        H  0.72760431  0.32766379  0.65534535     0.14100
H369        H  0.72708898  0.36459579  0.60687702     0.13200
O370        O  0.79613307  0.51621796  0.45840635    -0.55300
C371        C  0.75693819  0.96022725  0.55780088     0.77300
O372        O  0.72254253  0.52072462  0.53486970    -0.56500
C373        C  0.79547288  0.53767288  0.44068325     0.77300
C374        C  0.70291024  0.96091733  0.44159910     0.79600
Cd375      Cd  0.74983198  0.49908302  0.49945453     1.37500
O376        O  0.77896135  0.98129573  0.53939820    -0.55300
O377        O  0.72776729  0.96229461  0.44115433    -0.54200
C378        C  0.74408535  0.53892779  0.55756898     0.79600
O379        O  0.69948330  0.97710109  0.46851274    -0.56500
O380        O  0.73182532  0.95689066  0.54924385    -0.55000
O381        O  0.77388340  0.54127346  0.44970874    -0.55000
O382        O  0.76810282  0.53882193  0.55360221    -0.54100
O383        O  0.80221761  0.77324875  0.85814770    -0.55300
C384        C  0.75790663  0.79670691  0.77599111     0.77300
O385        O  0.72128801  0.70123028  0.79685775    -0.56500
C386        C  0.79653798  0.75589778  0.88942042     0.77300
C387        C  0.70538772  0.74522729  0.89084469     0.79600
Cd388      Cd  0.75053428  0.75009263  0.83272691     1.37500
O389        O  0.77763867  0.80081569  0.80294896    -0.55300
O390        O  0.72867069  0.76972667  0.88407767    -0.54200
C391        C  0.74279065  0.70319118  0.77558614     0.79600
O392        O  0.70268153  0.72284296  0.87088278    -0.56500
O393        O  0.73493277  0.77136251  0.77517593    -0.55000
O394        O  0.76984185  0.73612430  0.89481484    -0.55000
O395        O  0.76751745  0.72646715  0.78052593    -0.54100
O396        O  0.97434233  0.77447537  0.13506945    -0.55300
C397        C  0.53696404  0.79626876  0.22511378     0.77300
O398        O  0.97660850  0.69810784  0.19537979    -0.56500
C399        C  0.95901969  0.75404131  0.10868282     0.77300
C400        C  0.54146668  0.74687438  0.10922157     0.79600
Cd401      Cd  0.99935736  0.74939001  0.16659533     1.37500
O402        O  0.51935576  0.79895850  0.20031880    -0.55300
O403        O  0.53606282  0.76794529  0.10794670    -0.54200
C404        C  0.95969753  0.70102898  0.22140991     0.79600
O405        O  0.52774704  0.72701013  0.13697748    -0.56500
O406        O  0.53721812  0.77216763  0.22319744    -0.55000
O407        O  0.96204270  0.73144086  0.10903442    -0.55000
O408        O  0.96095622  0.72587957  0.22213705    -0.54100
C409        C  0.60088175  0.74332416  0.02768895     0.19500
C410        C  0.59728548  0.74339662  0.98327984    -0.09600
C411        C  0.61807953  0.74269356  0.95572426    -0.10500
C412        C  0.64259380  0.74190916  0.97240366     0.21100
C413        C  0.64608612  0.74164735  0.01680776    -0.12500
C414        C  0.62529343  0.74234792  0.04436010    -0.10800
C415        C  0.66445544  0.74208042  0.94396838     0.02000
C416        C  0.68299044  0.74305140  0.91983622    -0.30800
C417        C  0.57972706  0.74448202  0.05617282     0.03400
C418        C  0.56223754  0.74555636  0.08035318    -0.32500
H419        H  0.57851530  0.74414817  0.96997375     0.14500
H420        H  0.61515712  0.74296279  0.92148402     0.14300
H421        H  0.66496300  0.74110258  0.03011866     0.14100
H422        H  0.62832463  0.74228272  0.07859887     0.13200
C423        C  0.90124617  0.75923585  0.02624621     0.19500
C424        C  0.90592723  0.76045136  0.98198354    -0.09600
C425        C  0.88525839  0.76087508  0.95397180    -0.10500
C426        C  0.85983438  0.76009527  0.97012418     0.21100
C427        C  0.85528491  0.75912703  0.01438374    -0.12500
C428        C  0.87594269  0.75870443  0.04238032    -0.10800
C429        C  0.83808297  0.75957584  0.94134519     0.02000
C430        C  0.81936723  0.75834735  0.91750444    -0.30800
C431        C  0.92204408  0.75795207  0.05511049     0.03400
C432        C  0.93904531  0.75636427  0.07956045    -0.32500
H433        H  0.92540224  0.76083537  0.96914633     0.14500
H434        H  0.88896460  0.76156612  0.91981521     0.14300
H435        H  0.83567294  0.75845753  0.02721797     0.14100
H436        H  0.87208336  0.75772945  0.07651647     0.13200
C437        C  0.59467101  0.86150251  0.30561586     0.19500
C438        C  0.58866898  0.86140451  0.34932878    -0.09600
C439        C  0.61013157  0.88254989  0.37667914    -0.10500
C440        C  0.63771826  0.90390390  0.36046869     0.21100
C441        C  0.64357773  0.90421332  0.31667283    -0.12500
C442        C  0.62212332  0.88308018  0.28933386    -0.10800
C443        C  0.66031925  0.92480999  0.38893793     0.02000
C444        C  0.67958662  0.94163419  0.41293584    -0.30800
C445        C  0.57318618  0.83890762  0.27768826     0.03400
C446        C  0.55613054  0.81961754  0.25388303    -0.32500
H447        H  0.56756837  0.84478241  0.36233958     0.14500
H448        H  0.60536474  0.88202399  0.41047247     0.14300
H449        H  0.66484314  0.92054696  0.30375761     0.14100
H450        H  0.62706561  0.88333289  0.25565201     0.13200
C451        C  0.85897254  0.59496534  0.35808985     0.19500
C452        C  0.88842626  0.61275636  0.37128264    -0.09600
C453        C  0.90948951  0.63339304  0.34308147    -0.10500
C454        C  0.90121188  0.63633607  0.30154333     0.21100
C455        C  0.87178823  0.61844795  0.28833708    -0.12500
C456        C  0.85074466  0.59783138  0.31651397    -0.10800
C457        C  0.92259266  0.65825982  0.27286282     0.02000
C458        C  0.93985835  0.67730277  0.24903923    -0.31400
C459        C  0.83705415  0.57421088  0.38734166     0.03400
C460        C  0.81825942  0.55723466  0.41167920    -0.32500
H461        H  0.89504174  0.61081878  0.40338084     0.14500
H462        H  0.93213886  0.64718887  0.35375302     0.14300
H463        H  0.86507936  0.62060025  0.25640865     0.14100
H464        H  0.82802642  0.58427611  0.30597787     0.13200
C465        C  0.73841871  0.63968913  0.69447454     0.19500
C466        C  0.72301957  0.60950657  0.70511602    -0.09600
C467        C  0.72353601  0.58859385  0.67746873    -0.10500
C468        C  0.73946140  0.59778182  0.63908031     0.21100
C469        C  0.75487062  0.62796447  0.62848193    -0.12500
C470        C  0.75435355  0.64885963  0.65610652    -0.10800
C471        C  0.74022650  0.57637637  0.61065340     0.02000
C472        C  0.74154121  0.55898493  0.58648993    -0.30800
C473        C  0.73839156  0.66133656  0.72318736     0.03400
C474        C  0.73954641  0.68005840  0.74717476    -0.32500
H475        H  0.71072896  0.60217881  0.73477540     0.14500
H476        H  0.71159688  0.56531646  0.68604633     0.14300
H477        H  0.76731462  0.63533084  0.59895062     0.14100
H478        H  0.76644713  0.67215540  0.64762663     0.13200
C479        C  0.76223854  0.90231353  0.63987994     0.19500
C480        C  0.78216596  0.91157428  0.67421545    -0.09600
C481        C  0.78248328  0.89058256  0.70175309    -0.10500
C482        C  0.76286816  0.86026753  0.69504426     0.21100
C483        C  0.74295038  0.85104317  0.66073893    -0.12500
C484        C  0.74263094  0.87200376  0.63324274    -0.10800
C485        C  0.76266052  0.83858826  0.72371892     0.02000
C486        C  0.76120960  0.81979634  0.74766209    -0.30800
C487        C  0.76167996  0.92374365  0.61146374     0.03400
C488        C  0.76014464  0.94082699  0.58707142    -0.32500
H489        H  0.79738421  0.93496405  0.67971479     0.14500
H490        H  0.79789694  0.89796255  0.72827837     0.14300
H491        H  0.72760404  0.82766382  0.65534543     0.14100
H492        H  0.72708890  0.86459591  0.60687737     0.13200
loop_ 
_geom_bond_atom_site_label_1 
_geom_bond_atom_site_label_2 
_geom_bond_distance 
_geom_bond_site_symmetry_2 
_ccdc_geom_bond_type 
O1            C4   1.264       .  A
O1           Cd6   2.476   1_545  S
C2           O11   1.262       .  A
C2            O7   1.263       .  A
C2          C119   1.436       .  S
O3            C9   1.264       .  A
O3           Cd6   2.475   1_545  S
C4           O12   1.264       .  A
C4           C91   1.437       .  S
C5           O10   1.264       .  A
C5            O8   1.264       .  A
C5           C75   1.438       .  S
Cd6          O13   2.463   1_565  S
Cd6          O12   2.465   1_565  S
Cd6         O134   2.466       .  S
Cd6         O130   2.480       .  S
Cd6         O133   2.478       .  S
Cd6         O131   2.469       .  S
O7         Cd129   2.480       .  S
O8         Cd129   2.469       .  S
C9           O13   1.263       .  A
C9          C103   1.436       .  S
O10        Cd129   2.478       .  S
O11        Cd129   2.466       .  S
O14          C17   1.264       .  A
O14         Cd19   2.471       .  S
C15          O24   1.263       .  A
C15          O20   1.264       .  A
C15         C117   1.435       .  S
O16          C22   1.264       .  A
O16         Cd19   2.482       .  S
C17          O25   1.263       .  A
C17          C61   1.434       .  S
C18          O23   1.265       .  A
C18          O21   1.264       .  A
C18          C47   1.438       .  S
Cd19         O26   2.459       .  S
Cd19         O25   2.462       .  S
Cd19         O24   2.459       .  S
Cd19         O20   2.473       .  S
Cd19         O23   2.476       .  S
Cd19         O21   2.467       .  S
C22          O26   1.262       .  A
C22         C105   1.435       .  S
O27          C30   1.264       .  A
O27         Cd32   2.470       .  S
C28          O37   1.263       .  A
C28          O33   1.264       .  A
C28          C77   1.438       .  S
O29          C35   1.264       .  A
O29         Cd32   2.487       .  S
C30          O38   1.263       .  A
C30          C63   1.435       .  S
C31          O36   1.264       .  A
C31          O34   1.263       .  A
C31          C49   1.438       .  S
Cd32         O39   2.466       .  S
Cd32         O38   2.466       .  S
Cd32        O283   2.469       .  S
Cd32        O279   2.481       .  S
Cd32        O282   2.477       .  S
Cd32        O280   2.474       .  S
O33        Cd278   2.481   1_455  S
O34        Cd278   2.474   1_455  S
C35          O39   1.263       .  A
C35          C89   1.438       .  S
O36        Cd278   2.477   1_455  S
O37        Cd278   2.469   1_455  S
C40          C48   1.443       .  S
C40          C41   1.402   1_554  A
C40          C45   1.402       .  A
C41          C42   1.400       .  A
C41          H50   1.084       .  S
C42          C43   1.402       .  A
C42          H51   1.083       .  S
C43          C46   1.443       .  S
C43          C44   1.402   1_556  A
C44          C45   1.400       .  A
C44          H52   1.084       .  S
C45          H53   1.083       .  S
C46          C47   1.208       .  T
C48          C49   1.208       .  T
C54          C62   1.440       .  S
C54          C55   1.402   1_554  A
C54          C59   1.401       .  A
C55          C56   1.399       .  A
C55          H64   1.084       .  S
C56          C57   1.401       .  A
C56          H65   1.083       .  S
C57          C60   1.439       .  S
C57          C58   1.401   1_556  A
C58          C59   1.399       .  A
C58          H66   1.084       .  S
C59          H67   1.083       .  S
C60          C61   1.206       .  T
C62          C63   1.206       .  T
C68          C76   1.442       .  S
C68          C69   1.402       .  A
C68          C73   1.402       .  A
C69          C70   1.400       .  A
C69          H78   1.084       .  S
C70          C71   1.402       .  A
C70          H79   1.083       .  S
C71          C74   1.442       .  S
C71          C72   1.402       .  A
C72          C73   1.400       .  A
C72          H80   1.084       .  S
C73          H81   1.083       .  S
C74          C75   1.208       .  T
C76          C77   1.207       .  T
C82          C90   1.442       .  S
C82          C83   1.402       .  A
C82          C87   1.401       .  A
C83          C84   1.401       .  A
C83          H92   1.083       .  S
C84          C85   1.402       .  A
C84          H93   1.084       .  S
C85          C88   1.443       .  S
C85          C86   1.402       .  A
C86          C87   1.399       .  A
C86          H94   1.083       .  S
C87          H95   1.084       .  S
C88          C89   1.208       .  T
C90          C91   1.207       .  T
C96         C104   1.440       .  S
C96          C97   1.401       .  A
C96         C101   1.401       .  A
C97          C98   1.400       .  A
C97         H106   1.083       .  S
C98          C99   1.402       .  A
C98         H107   1.084       .  S
C99         C102   1.440       .  S
C99         C100   1.401       .  A
C100        C101   1.399       .  A
C100        H108   1.083       .  S
C101        H109   1.084       .  S
C102        C103   1.206       .  T
C104        C105   1.206       .  T
C110        C118   1.440       .  S
C110        C111   1.402       .  A
C110        C115   1.401       .  A
C111        C112   1.400       .  A
C111        H120   1.084       .  S
C112        C113   1.402       .  A
C112        H121   1.083       .  S
C113        C116   1.439       .  S
C113        C114   1.401       .  A
C114        C115   1.398       .  A
C114        H122   1.084       .  S
C115        H123   1.083       .  S
C116        C117   1.206       .  T
C118        C119   1.206       .  T
O124        C127   1.264       .  A
O124       Cd129   2.476       .  S
C125        O134   1.262       .  A
C125        O130   1.263       .  A
C125        C242   1.436       .  S
O126        C132   1.264       .  A
O126       Cd129   2.475       .  S
C127        O135   1.264       .  A
C127        C214   1.437       .  S
C128        O133   1.264       .  A
C128        O131   1.264       .  A
C128        C198   1.438       .  S
Cd129       O136   2.463       .  S
Cd129       O135   2.465       .  S
C132        O136   1.263       .  A
C132        C226   1.436       .  S
O137        C140   1.264       .  A
O137       Cd142   2.471       .  S
C138        O147   1.263       .  A
C138        O143   1.264       .  A
C138        C240   1.435       .  S
O139        C145   1.264       .  A
O139       Cd142   2.482       .  S
C140        O148   1.263       .  A
C140        C184   1.434       .  S
C141        O146   1.265       .  A
C141        O144   1.264       .  A
C141        C170   1.438       .  S
Cd142       O149   2.459       .  S
Cd142       O148   2.462       .  S
Cd142       O147   2.459       .  S
Cd142       O143   2.473       .  S
Cd142       O146   2.476       .  S
Cd142       O144   2.467       .  S
C145        O149   1.262       .  A
C145        C228   1.435       .  S
O150        C153   1.264       .  A
O150       Cd155   2.470       .  S
C151        O160   1.263       .  A
C151        O156   1.264       .  A
C151        C200   1.438       .  S
O152        C158   1.264       .  A
O152       Cd155   2.487       .  S
C153        O161   1.263       .  A
C153        C186   1.435       .  S
C154        O159   1.264       .  A
C154        O157   1.263       .  A
C154        C172   1.438       .  S
Cd155       O162   2.466       .  S
Cd155       O161   2.466       .  S
Cd155       O406   2.469       .  S
Cd155       O402   2.481       .  S
Cd155       O405   2.477       .  S
Cd155       O403   2.474       .  S
O156       Cd401   2.481   1_455  S
O157       Cd401   2.474   1_455  S
C158        O162   1.263       .  A
C158        C212   1.438       .  S
O159       Cd401   2.477   1_455  S
O160       Cd401   2.469   1_455  S
C163        C171   1.443       .  S
C163        C164   1.402   1_554  A
C163        C168   1.402       .  A
C164        C165   1.400       .  A
C164        H173   1.084       .  S
C165        C166   1.402       .  A
C165        H174   1.083       .  S
C166        C169   1.443       .  S
C166        C167   1.402   1_556  A
C167        C168   1.400       .  A
C167        H175   1.084       .  S
C168        H176   1.083       .  S
C169        C170   1.208       .  T
C171        C172   1.208       .  T
C177        C185   1.440       .  S
C177        C178   1.402   1_554  A
C177        C182   1.401       .  A
C178        C179   1.399       .  A
C178        H187   1.084       .  S
C179        C180   1.401       .  A
C179        H188   1.083       .  S
C180        C183   1.439       .  S
C180        C181   1.401   1_556  A
C181        C182   1.399       .  A
C181        H189   1.084       .  S
C182        H190   1.083       .  S
C183        C184   1.206       .  T
C185        C186   1.206       .  T
C191        C199   1.442       .  S
C191        C192   1.402       .  A
C191        C196   1.402       .  A
C192        C193   1.400       .  A
C192        H201   1.084       .  S
C193        C194   1.402       .  A
C193        H202   1.083       .  S
C194        C197   1.442       .  S
C194        C195   1.402       .  A
C195        C196   1.400       .  A
C195        H203   1.084       .  S
C196        H204   1.083       .  S
C197        C198   1.208       .  T
C199        C200   1.207       .  T
C205        C213   1.442       .  S
C205        C206   1.402       .  A
C205        C210   1.401       .  A
C206        C207   1.401       .  A
C206        H215   1.083       .  S
C207        C208   1.402       .  A
C207        H216   1.084       .  S
C208        C211   1.443       .  S
C208        C209   1.402       .  A
C209        C210   1.399       .  A
C209        H217   1.083       .  S
C210        H218   1.084       .  S
C211        C212   1.208       .  T
C213        C214   1.207       .  T
C219        C227   1.440       .  S
C219        C220   1.401       .  A
C219        C224   1.401       .  A
C220        C221   1.400       .  A
C220        H229   1.083       .  S
C221        C222   1.402       .  A
C221        H230   1.084       .  S
C222        C225   1.440       .  S
C222        C223   1.401       .  A
C223        C224   1.399       .  A
C223        H231   1.083       .  S
C224        H232   1.084       .  S
C225        C226   1.206       .  T
C227        C228   1.206       .  T
C233        C241   1.440       .  S
C233        C234   1.402       .  A
C233        C238   1.401       .  A
C234        C235   1.400       .  A
C234        H243   1.084       .  S
C235        C236   1.402       .  A
C235        H244   1.083       .  S
C236        C239   1.439       .  S
C236        C237   1.401       .  A
C237        C238   1.398       .  A
C237        H245   1.084       .  S
C238        H246   1.083       .  S
C239        C240   1.206       .  T
C241        C242   1.206       .  T
O247        C250   1.264       .  A
O247       Cd252   2.476   1_545  S
C248        O257   1.262       .  A
C248        O253   1.263       .  A
C248        C365   1.436       .  S
O249        C255   1.264       .  A
O249       Cd252   2.475   1_545  S
C250        O258   1.264       .  A
C250        C337   1.437       .  S
C251        O256   1.264       .  A
C251        O254   1.264       .  A
C251        C321   1.438       .  S
Cd252       O259   2.463   1_565  S
Cd252       O258   2.465   1_565  S
Cd252       O380   2.466       .  S
Cd252       O376   2.480       .  S
Cd252       O379   2.478       .  S
Cd252       O377   2.469       .  S
O253       Cd375   2.480       .  S
O254       Cd375   2.469       .  S
C255        O259   1.263       .  A
C255        C349   1.436       .  S
O256       Cd375   2.478       .  S
O257       Cd375   2.466       .  S
O260        C263   1.263       .  A
O260       Cd265   2.471       .  S
C261        O270   1.263       .  A
C261        O266   1.264       .  A
C261        C363   1.435       .  S
O262        C268   1.264       .  A
O262       Cd265   2.482       .  S
C263        O271   1.263       .  A
C263        C307   1.434       .  S
C264        O269   1.265       .  A
C264        O267   1.264       .  A
C264        C293   1.438       .  S
Cd265       O272   2.459       .  S
Cd265       O271   2.462       .  S
Cd265       O270   2.459       .  S
Cd265       O266   2.473       .  S
Cd265       O269   2.476       .  S
Cd265       O267   2.467       .  S
C268        O272   1.262       .  A
C268        C351   1.435       .  S
O273        C276   1.264       .  A
O273       Cd278   2.470       .  S
C274        O283   1.263       .  A
C274        O279   1.264       .  A
C274        C323   1.438       .  S
O275        C281   1.264       .  A
O275       Cd278   2.487       .  S
C276        O284   1.263       .  A
C276        C309   1.435       .  S
C277        O282   1.264       .  A
C277        O280   1.263       .  A
C277        C295   1.438       .  S
Cd278       O285   2.466       .  S
Cd278       O284   2.466       .  S
C281        O285   1.263       .  A
C281        C335   1.438       .  S
C286        C294   1.443       .  S
C286        C287   1.402   1_554  A
C286        C291   1.402       .  A
C287        C288   1.400       .  A
C287        H296   1.084       .  S
C288        C289   1.402       .  A
C288        H297   1.083       .  S
C289        C292   1.443       .  S
C289        C290   1.402   1_556  A
C290        C291   1.400       .  A
C290        H298   1.084       .  S
C291        H299   1.083       .  S
C292        C293   1.208       .  T
C294        C295   1.208       .  T
C300        C308   1.440       .  S
C300        C301   1.402   1_554  A
C300        C305   1.401       .  A
C301        C302   1.399       .  A
C301        H310   1.084       .  S
C302        C303   1.401       .  A
C302        H311   1.083       .  S
C303        C306   1.439       .  S
C303        C304   1.401   1_556  A
C304        C305   1.399       .  A
C304        H312   1.084       .  S
C305        H313   1.083       .  S
C306        C307   1.206       .  T
C308        C309   1.206       .  T
C314        C322   1.442       .  S
C314        C315   1.402       .  A
C314        C319   1.402       .  A
C315        C316   1.400       .  A
C315        H324   1.084       .  S
C316        C317   1.402       .  A
C316        H325   1.083       .  S
C317        C320   1.442       .  S
C317        C318   1.402       .  A
C318        C319   1.400       .  A
C318        H326   1.084       .  S
C319        H327   1.083       .  S
C320        C321   1.208       .  T
C322        C323   1.207       .  T
C328        C336   1.442       .  S
C328        C329   1.402       .  A
C328        C333   1.401       .  A
C329        C330   1.401       .  A
C329        H338   1.083       .  S
C330        C331   1.402       .  A
C330        H339   1.084       .  S
C331        C334   1.443       .  S
C331        C332   1.402       .  A
C332        C333   1.399       .  A
C332        H340   1.083       .  S
C333        H341   1.084       .  S
C334        C335   1.208       .  T
C336        C337   1.207       .  T
C342        C350   1.440       .  S
C342        C343   1.401       .  A
C342        C347   1.401       .  A
C343        C344   1.400       .  A
C343        H352   1.083       .  S
C344        C345   1.402       .  A
C344        H353   1.084       .  S
C345        C348   1.440       .  S
C345        C346   1.401       .  A
C346        C347   1.399       .  A
C346        H354   1.083       .  S
C347        H355   1.084       .  S
C348        C349   1.206       .  T
C350        C351   1.206       .  T
C356        C364   1.440       .  S
C356        C357   1.402       .  A
C356        C361   1.401       .  A
C357        C358   1.400       .  A
C357        H366   1.084       .  S
C358        C359   1.402       .  A
C358        H367   1.083       .  S
C359        C362   1.439       .  S
C359        C360   1.401       .  A
C360        C361   1.398       .  A
C360        H368   1.084       .  S
C361        H369   1.083       .  S
C362        C363   1.206       .  T
C364        C365   1.206       .  T
O370        C373   1.264       .  A
O370       Cd375   2.476       .  S
C371        O380   1.262       .  A
C371        O376   1.263       .  A
C371        C488   1.436       .  S
O372        C378   1.264       .  A
O372       Cd375   2.475       .  S
C373        O381   1.264       .  A
C373        C460   1.437       .  S
C374        O379   1.264       .  A
C374        O377   1.264       .  A
C374        C444   1.438       .  S
Cd375       O382   2.463       .  S
Cd375       O381   2.465       .  S
C378        O382   1.263       .  A
C378        C472   1.436       .  S
O383        C386   1.264       .  A
O383       Cd388   2.471       .  S
C384        O393   1.263       .  A
C384        O389   1.264       .  A
C384        C486   1.435       .  S
O385        C391   1.264       .  A
O385       Cd388   2.482       .  S
C386        O394   1.263       .  A
C386        C430   1.434       .  S
C387        O392   1.265       .  A
C387        O390   1.264       .  A
C387        C416   1.438       .  S
Cd388       O395   2.459       .  S
Cd388       O394   2.462       .  S
Cd388       O393   2.459       .  S
Cd388       O389   2.473       .  S
Cd388       O392   2.476       .  S
Cd388       O390   2.467       .  S
C391        O395   1.262       .  A
C391        C474   1.435       .  S
O396        C399   1.264       .  A
O396       Cd401   2.470       .  S
C397        O406   1.263       .  A
C397        O402   1.264       .  A
C397        C446   1.438       .  S
O398        C404   1.264       .  A
O398       Cd401   2.487       .  S
C399        O407   1.263       .  A
C399        C432   1.435       .  S
C400        O405   1.264       .  A
C400        O403   1.263       .  A
C400        C418   1.438       .  S
Cd401       O408   2.466       .  S
Cd401       O407   2.466       .  S
C404        O408   1.263       .  A
C404        C458   1.438       .  S
C409        C417   1.443       .  S
C409        C410   1.402   1_554  A
C409        C414   1.402       .  A
C410        C411   1.400       .  A
C410        H419   1.084       .  S
C411        C412   1.402       .  A
C411        H420   1.083       .  S
C412        C415   1.443       .  S
C412        C413   1.402   1_556  A
C413        C414   1.400       .  A
C413        H421   1.084       .  S
C414        H422   1.083       .  S
C415        C416   1.208       .  T
C417        C418   1.208       .  T
C423        C431   1.440       .  S
C423        C424   1.402   1_554  A
C423        C428   1.401       .  A
C424        C425   1.399       .  A
C424        H433   1.084       .  S
C425        C426   1.401       .  A
C425        H434   1.083       .  S
C426        C429   1.439       .  S
C426        C427   1.401   1_556  A
C427        C428   1.399       .  A
C427        H435   1.084       .  S
C428        H436   1.083       .  S
C429        C430   1.206       .  T
C431        C432   1.206       .  T
C437        C445   1.442       .  S
C437        C438   1.402       .  A
C437        C442   1.402       .  A
C438        C439   1.400       .  A
C438        H447   1.084       .  S
C439        C440   1.402       .  A
C439        H448   1.083       .  S
C440        C443   1.442       .  S
C440        C441   1.402       .  A
C441        C442   1.400       .  A
C441        H449   1.084       .  S
C442        H450   1.083       .  S
C443        C444   1.208       .  T
C445        C446   1.207       .  T
C451        C459   1.442       .  S
C451        C452   1.402       .  A
C451        C456   1.401       .  A
C452        C453   1.401       .  A
C452        H461   1.083       .  S
C453        C454   1.402       .  A
C453        H462   1.084       .  S
C454        C457   1.443       .  S
C454        C455   1.402       .  A
C455        C456   1.399       .  A
C455        H463   1.083       .  S
C456        H464   1.084       .  S
C457        C458   1.208       .  T
C459        C460   1.207       .  T
C465        C473   1.440       .  S
C465        C466   1.401       .  A
C465        C470   1.401       .  A
C466        C467   1.400       .  A
C466        H475   1.083       .  S
C467        C468   1.402       .  A
C467        H476   1.084       .  S
C468        C471   1.440       .  S
C468        C469   1.401       .  A
C469        C470   1.399       .  A
C469        H477   1.083       .  S
C470        H478   1.084       .  S
C471        C472   1.206       .  T
C473        C474   1.206       .  T
C479        C487   1.440       .  S
C479        C480   1.402       .  A
C479        C484   1.401       .  A
C480        C481   1.400       .  A
C480        H489   1.084       .  S
C481        C482   1.402       .  A
C481        H490   1.083       .  S
C482        C485   1.439       .  S
C482        C483   1.401       .  A
C483        C484   1.398       .  A
C483        H491   1.084       .  S
C484        H492   1.083       .  S
C485        C486   1.206       .  T
C487        C488   1.206       .  T
