geometry optimzed in LAMMPS
_audit_creation_date              2020-12-01 
_audit_creation_method            'lammps2cif' 
_symmetry_space_group_name_H-M    'P1' 
_symmetry_Int_Tables_number       1 
_symmetry_cell_setting            triclinic 
loop_ 
_symmetry_equiv_pos_as_xyz 
  x,y,z 
_cell_length_a                    30.98364389 
_cell_length_b                    30.68910226594317 
_cell_length_c                    32.29211527163654 
_cell_angle_alpha                 90.79918056913942 
_cell_angle_beta                  88.65913500194515 
_cell_angle_gamma                 119.729834614259 
loop_ 
_atom_site_label 
_atom_site_type_symbol 
_atom_site_fract_x 
_atom_site_fract_y 
_atom_site_fract_z 
_atom_site_charge 
C1          C  0.04856422  0.00891557  0.25712058     0.82000
N2          N  0.07646023  0.06030451  0.25695838    -0.76300
C3          C  0.05501299  0.08929166  0.25001420     0.84400
N4          N  0.00467549  0.06589031  0.24382442    -0.76300
C5          C  0.97601219  0.01452477  0.24507808     0.84500
N6          N  0.99855200  0.98668181  0.25139101    -0.78000
C7          C  0.33716064  0.74015851  0.24918269     0.04900
C8          C  0.38963484  0.76648290  0.24823521    -0.11300
C9          C  0.41729748  0.74147462  0.25140563     0.02400
C10         C  0.39104018  0.68844303  0.25426689    -0.09800
C11         C  0.33850348  0.66055208  0.25310879     0.04900
C12         C  0.31220291  0.68718212  0.25128140    -0.09200
H13         H  0.40892981  0.80645064  0.24402913     0.10500
H14         H  0.41153236  0.66863451  0.25780412     0.08000
H15         H  0.27180183  0.66637279  0.25121858     0.07800
C16         C  0.73534503  0.63553589  0.02326467     0.82000
N17         N  0.70713079  0.58646461  0.03508802    -0.76300
C18         C  0.70009980  0.57432938  0.07616914     0.84400
N19         N  0.72203396  0.61102692  0.10496735    -0.76300
C20         C  0.75091969  0.65955351  0.09378262     0.84500
N21         N  0.75694448  0.67128646  0.05295781    -0.78000
Zn22       Zn  0.13925165  0.84982062  0.28484809     1.49700
Zn23       Zn  0.19658473  0.92019462  0.22446465     1.49400
Zn24       Zn  0.07986283  0.88503694  0.23300314     1.49100
Zn25       Zn  0.15633964  0.96345441  0.29555091     1.49500
O26         O  0.14190665  0.90643592  0.25997700    -1.82400
O27         O  0.17799149  0.82013091  0.25626959    -0.73000
O28         O  0.16652505  0.88112515  0.17396660    -0.72800
O29         O  0.02632216  0.83021406  0.26918467    -0.72400
O30         O  0.24327971  0.89412435  0.24320621    -0.73000
O31         O  0.07010327  0.79857791  0.29668252    -0.72600
O32         O  0.08561033  0.85587197  0.17585019    -0.73200
O33         O  0.10099456  0.98332822  0.29144141    -0.72600
O34         O  0.22529869  0.99197208  0.21110618    -0.73400
O35         O  0.06399235  0.94330372  0.23323414    -0.72700
O36         O  0.21126362  0.02567904  0.26809498    -0.73200
O37         O  0.17517731  0.94777074  0.35331718    -0.73100
O38         O  0.16836618  0.87328307  0.33907370    -0.72900
C39         C  0.22429456  0.84679260  0.24827752     0.78900
C40         C  0.12370979  0.85685643  0.15821253     0.79400
C41         C  0.02938320  0.79817558  0.29183421     0.78300
C42         C  0.07244707  0.97690773  0.26094171     0.78700
C43         C  0.22608566  0.02876437  0.23057887     0.79800
C44         C  0.17961915  0.90980325  0.36370877     0.78900
C45         C  0.30487583  0.08642737  0.03154775     0.82000
N46         N  0.34881958  0.08905532  0.04154079    -0.76300
C47         C  0.36817095  0.10580299  0.07964911     0.84400
N48         N  0.34472412  0.12107356  0.10668393    -0.76300
C49         C  0.30178452  0.11946927  0.09755462     0.84500
N50         N  0.28139844  0.10122721  0.06003942    -0.78000
C51         C  0.85951025  0.62636708  0.47147921     0.82000
N52         N  0.88825420  0.66270150  0.44352083    -0.76300
C53         C  0.88461992  0.65313301  0.40235423     0.84400
N54         N  0.85211734  0.60690584  0.38867033    -0.76300
C55         C  0.82299549  0.56983230  0.41523380     0.84500
N56         N  0.82652520  0.57909900  0.45711974    -0.78000
Zn57       Zn  0.61995223  0.35061806  0.25217898     1.49700
Zn58       Zn  0.63386392  0.29557153  0.17506444     1.49400
Zn59       Zn  0.70103648  0.31484698  0.25309672     1.49100
Zn60       Zn  0.58307358  0.23212561  0.25530984     1.49500
O61         O  0.63475179  0.29829091  0.23465893    -1.82400
O62         O  0.61724716  0.39091712  0.20262602    -0.73000
O63         O  0.69048104  0.29078948  0.15176775    -0.72800
O64         O  0.73437954  0.38064471  0.28691669    -0.72400
O65         O  0.63764731  0.35648647  0.15049449    -0.73000
O66         O  0.67411217  0.39958357  0.28864646    -0.72600
O67         O  0.74402614  0.31254408  0.20313184    -0.73200
O68         O  0.61248305  0.20004382  0.29116128    -0.72600
O69         O  0.57404531  0.23629720  0.15419935    -0.73400
O70         O  0.68979660  0.26385709  0.29679967    -0.72700
O71         O  0.53973455  0.18624276  0.20823473    -0.73200
O72         O  0.54061342  0.24240764  0.29827323    -0.73100
O73         O  0.56200927  0.32292793  0.29334621    -0.72900
C74         C  0.62925283  0.39051308  0.16445224     0.78900
C75         C  0.73231199  0.30015201  0.16518666     0.79400
C76         C  0.71620895  0.40756059  0.30063157     0.78300
C77         C  0.65430971  0.22161663  0.30906642     0.78700
C78         C  0.54068424  0.19513076  0.16951770     0.79800
C79         C  0.53790549  0.28035563  0.31123975     0.78900
Zn80       Zn  0.73439891  0.93569493  0.27465794     1.49700
Zn81       Zn  0.82679766  0.98700037  0.20938545     1.49400
Zn82       Zn  0.81702975  0.89931469  0.26799732     1.49100
Zn83       Zn  0.73138591  0.87641702  0.20307167     1.49500
O84         O  0.77946900  0.92543659  0.23904817    -1.82400
O85         O  0.76740392  0.00842082  0.28786680    -0.73000
O86         O  0.90032193  0.00279011  0.21445309    -0.72800
O87         O  0.78545328  0.87583916  0.32702480    -0.72400
O88         O  0.83047451  0.04488705  0.24201606    -0.73000
O89         O  0.72935469  0.90097712  0.32672058    -0.72600
O90         O  0.89311022  0.95189673  0.26610915    -0.73200
O91         O  0.75354570  0.82799639  0.18833670    -0.72600
O92         O  0.80064362  0.98481475  0.14988932    -0.73400
O93         O  0.81004089  0.83885852  0.23514415    -0.72700
O94         O  0.73061697  0.91077945  0.15184103    -0.73200
O95         O  0.66004970  0.83930076  0.22517625    -0.73100
O96         O  0.66053569  0.90279617  0.25803043    -0.72900
C97         C  0.80627987  0.04664729  0.27373210     0.78900
C98         C  0.92027500  0.98850900  0.24160396     0.79400
C99         C  0.74895138  0.87838964  0.34413584     0.78300
C100        C  0.78428825  0.81676312  0.20341157     0.78700
C101        C  0.75976158  0.95181649  0.13358300     0.79800
C102        C  0.63627290  0.85853632  0.24291798     0.78900
C103        C  0.76628637  0.12099363  0.47163860     0.82000
N104        N  0.80121637  0.13000760  0.44136071    -0.76300
C105        C  0.80130333  0.15206021  0.40504928     0.84400
N106        N  0.76602227  0.16459949  0.39948655    -0.76300
C107        C  0.73030160  0.15498871  0.42813268     0.84500
N108        N  0.72977353  0.13266733  0.46441289    -0.78000
C109        C  0.36660095  0.25383920  0.50928029     0.82000
N110        N  0.34749868  0.27972908  0.49036248    -0.76300
C111        C  0.36669480  0.30333076  0.45379594     0.84400
N112        N  0.40527273  0.30094742  0.43632304    -0.76300
C113        C  0.42447264  0.27486086  0.45360836     0.84500
N114        N  0.40445445  0.24982540  0.48995165    -0.78000
Zn115      Zn  0.23320703  0.34166305  0.24210806     1.49700
Zn116      Zn  0.14379418  0.24773706  0.29558358     1.49400
Zn117      Zn  0.13331019  0.33972544  0.25941162     1.49100
Zn118      Zn  0.13579757  0.24778454  0.20341033     1.49500
O119        O  0.16159230  0.29471343  0.24980701    -1.82400
O120        O  0.26755235  0.33106922  0.29019759    -0.73000
O121        O  0.11632277  0.27016349  0.34257012    -0.72800
O122        O  0.18281303  0.41524945  0.25218179    -0.72400
O123        O  0.20675795  0.26301816  0.32137882    -0.73000
O124        O  0.25427645  0.41623987  0.24610938    -0.72600
O125        O  0.11458769  0.33760005  0.32097949    -0.73200
O126        O  0.08685366  0.26216077  0.18006724    -0.72600
O127        O  0.10010783  0.17038264  0.28383977    -0.73400
O128        O  0.07960932  0.32083504  0.21635790    -0.72700
O129        O  0.09851125  0.17009610  0.21546158    -0.73200
O130        O  0.18706457  0.27045750  0.15673107    -0.73100
O131        O  0.25393781  0.33654707  0.18272593    -0.72900
C132        C  0.25097020  0.29987153  0.32019119     0.78900
C133        C  0.11253993  0.30898610  0.35020256     0.79400
C134        C  0.23009204  0.43968404  0.24912336     0.78300
C135        C  0.06822722  0.29050287  0.18560846     0.78700
C136        C  0.08617999  0.14603451  0.24972962     0.79800
C137        C  0.23029103  0.30872471  0.15212045     0.78900
C138        C  0.89490801  0.24734124  0.99714523     0.82000
N139        N  0.85992711  0.25808192  0.01360473    -0.76300
C140        C  0.86901335  0.28423958  0.05013685     0.84400
N141        N  0.91153405  0.29744585  0.07001634    -0.76300
C142        C  0.94521203  0.28564196  0.05495894     0.84500
N143        N  0.93679443  0.26028372  0.01869183    -0.78000
C144        C  0.95033399  0.99227550  0.73838782     0.82000
N145        N  0.00072619  0.01808199  0.74255426    -0.76300
C146        C  0.02679011  0.99353120  0.74770118     0.84400
N147        N  0.00157384  0.94209535  0.74944398    -0.76300
C148        C  0.95107218  0.91519586  0.74488310     0.84500
N149        N  0.92580724  0.94077736  0.73918749    -0.78000
Zn150      Zn  0.26763017  0.07944294  0.72488114     1.49700
Zn151      Zn  0.18497171  0.11409233  0.73022061     1.49400
Zn152      Zn  0.17383088  0.02678498  0.78835134     1.49100
Zn153      Zn  0.26761732  0.13520174  0.79782871     1.49500
O154        O  0.22192867  0.08839675  0.75992752    -1.82400
O155        O  0.27848589  0.11862005  0.67394471    -0.73000
O156        O  0.10940088  0.05875576  0.72736738    -0.72800
O157        O  0.17037964  0.96967941  0.75590599    -0.72400
O158        O  0.22263426  0.14415081  0.67384295    -0.73000
O159        O  0.23036756  0.00821228  0.70765949    -0.72600
O160        O  0.10166890  0.01092387  0.78157705    -0.73200
O161        O  0.26601912  0.09919493  0.84861200    -0.72600
O162        O  0.18575287  0.16923690  0.76634780    -0.73400
O163        O  0.19469568  0.02646482  0.84840083    -0.72700
O164        O  0.24198366  0.18038661  0.81361880    -0.73200
O165        O  0.33988906  0.17244715  0.77800753    -0.73100
O166        O  0.33929677  0.10818908  0.74606900    -0.72900
C167        C  0.25991038  0.14255004  0.65713977     0.78900
C168        C  0.08214904  0.02271859  0.75241120     0.79400
C169        C  0.19147674  0.96985501  0.72166555     0.78300
C170        C  0.23487133  0.05831539  0.86597733     0.78700
C171        C  0.20939929  0.18955575  0.79937220     0.79800
C172        C  0.36361676  0.15218071  0.76183866     0.78900
C173        C  0.26787196  0.36806422  0.97984321     0.82000
N174        N  0.23986274  0.33159294  0.95214640    -0.76300
C175        C  0.24178037  0.34159749  0.91114865     0.84400
N176        N  0.27291178  0.38868887  0.89784851    -0.76300
C177        C  0.30123406  0.42590510  0.92444041     0.84500
N178        N  0.29847444  0.41588199  0.96582891    -0.78000
C179        C  0.13596972  0.36800666  0.52413056     0.82000
N180        N  0.16826138  0.41394166  0.54089662    -0.76300
C181        C  0.16945781  0.41988333  0.58323219     0.84400
N182        N  0.13880199  0.38061893  0.60778343    -0.76300
C183        C  0.10681312  0.33561211  0.59119356     0.84500
N184        N  0.10572711  0.32996873  0.54971828    -0.78000
Zn185      Zn  0.83268857  0.02599666  0.70429925     1.49700
Zn186      Zn  0.84414011  0.13485316  0.70611071     1.49400
Zn187      Zn  0.79390240  0.07352923  0.77766333     1.49100
Zn188      Zn  0.91013730  0.11016110  0.76390606     1.49500
O189        O  0.84574617  0.08492057  0.73823158    -1.82400
O190        O  0.81009324  0.03293293  0.64489023    -0.73000
O191        O  0.80953677  0.16948515  0.73230403    -0.72800
O192        O  0.76475997  0.00091375  0.79040916    -0.72400
O193        O  0.80915914  0.10445420  0.65473394    -0.73000
O194        O  0.78140246  0.96555232  0.73553877    -0.72600
O195        O  0.74834698  0.10312571  0.76307407    -0.73200
O196        O  0.90686881  0.13816383  0.82244635    -0.72600
O197        O  0.91210750  0.18188893  0.68792270    -0.73400
O198        O  0.82593046  0.11093387  0.82944717    -0.72700
O199        O  0.96095585  0.16553425  0.72656640    -0.73200
O200        O  0.93098023  0.05525530  0.76238497    -0.73100
O201        O  0.89056930  0.00997692  0.70719613    -0.72900
C202        C  0.80051697  0.06677783  0.63235888     0.78900
C203        C  0.76652909  0.14801491  0.74944537     0.79400
C204        C  0.76596081  0.96402523  0.77267326     0.78300
C205        C  0.86977429  0.13536455  0.84333502     0.78700
C206        C  0.95468521  0.18859349  0.69677642     0.79800
C207        C  0.92246814  0.02056966  0.73574130     0.78900
C208        C  0.11574564  0.75765464  0.00093364     0.82000
N209        N  0.08051644  0.75148747  0.97343614    -0.76300
C210        C  0.07820110  0.73020000  0.93594308     0.84400
N211        N  0.11141861  0.71567932  0.92549401    -0.76300
C212        C  0.14751021  0.72239567  0.95164197     0.84500
N213        N  0.15027925  0.74397844  0.98945718    -0.78000
Zn214      Zn  0.29278137  0.66744233  0.75344430     1.49700
Zn215      Zn  0.40561524  0.76070248  0.74031240     1.49400
Zn216      Zn  0.37367357  0.70023389  0.82094010     1.49100
Zn217      Zn  0.38121315  0.64411137  0.74161399     1.49500
O218        O  0.36334390  0.69309728  0.76266787    -1.82400
O219        O  0.28966516  0.71417106  0.71291888    -0.73000
O220        O  0.45263510  0.81196623  0.78432337    -0.72800
O221        O  0.32122474  0.70717850  0.85022480    -0.72400
O222        O  0.36404280  0.78254514  0.70769640    -0.73000
O223        O  0.25691061  0.66877218  0.80830367    -0.72600
O224        O  0.43578200  0.75997424  0.83689998    -0.73200
O225        O  0.38670883  0.60346008  0.79034612    -0.72600
O226        O  0.44682913  0.75436184  0.69486354    -0.73400
O227        O  0.37173177  0.64044142  0.84382354    -0.72700
O228        O  0.43841178  0.67810317  0.69935475    -0.73200
O229        O  0.32672425  0.59377481  0.70525080    -0.73100
O230        O  0.26042258  0.60122835  0.71959638    -0.72900
C231        C  0.31890076  0.75652040  0.69650570     0.78900
C232        C  0.46106430  0.80326209  0.82111607     0.79400
C233        C  0.27564154  0.69002949  0.84292371     0.78300
C234        C  0.37764248  0.60520596  0.82914416     0.78700
C235        C  0.45596208  0.72061151  0.68126787     0.79800
C236        C  0.28129661  0.58022361  0.69944489     0.78900
Zn237      Zn  0.77718544  0.66607889  0.76130207     1.49700
Zn238      Zn  0.87381756  0.66294919  0.73978514     1.49400
Zn239      Zn  0.86785059  0.75578674  0.70433701     1.49100
Zn240      Zn  0.87702185  0.75883782  0.79576767     1.49500
O241        O  0.84884289  0.70999129  0.75067346    -1.82400
O242        O  0.75170605  0.59022218  0.75378214    -0.73000
O243        O  0.88570302  0.65989622  0.67637590    -0.72800
O244        O  0.80553075  0.75064161  0.69002345    -0.72400
O245        O  0.82242890  0.58879221  0.75242939    -0.73000
O246        O  0.74090434  0.68922224  0.72405229    -0.72600
O247        O  0.88272524  0.72624914  0.65351202    -0.73200
O248        O  0.90797380  0.83564776  0.78132014    -0.72600
O249        O  0.93242376  0.68556335  0.77913499    -0.73400
O250        O  0.91574887  0.83274881  0.71327128    -0.72700
O251        O  0.93071881  0.74812205  0.81450359    -0.73200
O252        O  0.82992311  0.73687896  0.84601909    -0.73100
O253        O  0.76286313  0.66990245  0.82188877    -0.72900
C254        C  0.77495810  0.56559516  0.75403556     0.78900
C255        C  0.88526848  0.68658174  0.64643035     0.79400
C256        C  0.75920482  0.72424602  0.69708848     0.78300
C257        C  0.92368093  0.85842320  0.74659907     0.78700
C258        C  0.94843247  0.71904778  0.80784438     0.79800
C259        C  0.78727406  0.69816395  0.85184630     0.78900
C260        C  0.65499580  0.78568343  0.50186446     0.82000
N261        N  0.60853894  0.77775088  0.51286561    -0.76300
C262        C  0.58655258  0.75357543  0.54900981     0.84400
N263        N  0.61102815  0.73910637  0.57402389    -0.76300
C264        C  0.65693838  0.74812105  0.56440492     0.84500
N265        N  0.67930660  0.77178649  0.52857020    -0.78000
C266        C  0.69076567  0.92232272  0.96735284     0.82000
N267        N  0.64816456  0.91998790  0.95327501    -0.76300
C268        C  0.63185608  0.90137598  0.91458704     0.84400
N269        N  0.65646156  0.88346250  0.89177196    -0.76300
C270        C  0.69761063  0.88423809  0.90527762     0.84500
N271        N  0.71548302  0.90488061  0.94284924    -0.78000
C272        C  0.20697749  0.86108339  0.52910394     0.82000
N273        N  0.23547442  0.84069585  0.54045647    -0.76300
C274        C  0.22985936  0.82171034  0.57934896     0.84400
N275        N  0.19700719  0.82372447  0.60616591    -0.76300
C276        C  0.16934361  0.84444184  0.59579826     0.84500
N277        N  0.17472258  0.86335285  0.55713098    -0.78000
C278        C  0.66164064  0.26346718  0.76155027     0.04900
C279        C  0.68782165  0.31655918  0.76139263    -0.11300
C280        C  0.66277876  0.34449705  0.76000726     0.02400
C281        C  0.61017102  0.31783413  0.75907831    -0.09800
C282        C  0.58275251  0.26465588  0.76015958     0.04900
C283        C  0.60924015  0.23823132  0.76162813    -0.09200
H284        H  0.72800376  0.33627357  0.76275460     0.10500
H285        H  0.59054959  0.33870061  0.75640689     0.08000
H286        H  0.58927729  0.19821020  0.76240794     0.07800
C287        C  0.67785864  0.43052988  0.78413965     0.25300
C288        C  0.69166556  0.40136363  0.75875643    -0.22800
C289        C  0.73357243  0.42721415  0.73214798     0.20200
C290        C  0.76071558  0.48012859  0.73108968     0.25300
C291        C  0.74641494  0.50911978  0.75594937    -0.22700
C292        C  0.70453834  0.48350228  0.78248309     0.20200
F293        F  0.69028974  0.50983730  0.80795538    -0.12700
F294        F  0.63927726  0.40780994  0.81161169    -0.15000
F295        F  0.80022338  0.50308683  0.70452862    -0.15000
F296        F  0.74755971  0.40125266  0.70599450    -0.12700
C297        C  0.68268987  0.69179113  0.65585553     0.25300
C298        C  0.72762546  0.73247275  0.66905181    -0.22800
C299        C  0.74838766  0.77849005  0.64767775     0.20200
C300        C  0.72725844  0.78224776  0.61148516     0.25300
C301        C  0.68396043  0.74083025  0.59711485    -0.22700
C302        C  0.66080678  0.69613835  0.62013465     0.20200
F303        F  0.61723886  0.65658685  0.60764150    -0.12700
F304        F  0.66144168  0.64716737  0.67602915    -0.15000
F305        F  0.74799981  0.82692860  0.59138789    -0.15000
F306        F  0.79025720  0.81949953  0.66114034    -0.12700
C307        C  0.47617526  0.69063264  0.61474646     0.25300
C308        C  0.48475262  0.73042877  0.64174709    -0.22800
C309        C  0.51801149  0.77997680  0.62881301     0.20200
C310        C  0.54557883  0.78897929  0.59178245     0.25300
C311        C  0.54069799  0.74876342  0.56716060    -0.22700
C312        C  0.50354421  0.69985272  0.57766253     0.20200
F313        F  0.49862197  0.66028437  0.55468810    -0.12700
F314        F  0.44237127  0.64253249  0.62471530    -0.15000
F315        F  0.58211236  0.83646644  0.58305868    -0.15000
F316        F  0.52670240  0.81964568  0.65342753    -0.12700
C317        C  0.54031160  0.86402914  0.91487882     0.25300
C318        C  0.58631473  0.89595809  0.89601668    -0.22800
C319        C  0.58792173  0.90653618  0.85334149     0.20200
C320        C  0.54579074  0.87974381  0.82890852     0.25300
C321        C  0.50126731  0.84228769  0.84691040    -0.22700
C322        C  0.49812898  0.83729588  0.89058625     0.20200
F323        F  0.45508735  0.80324614  0.90957194    -0.12700
F324        F  0.53752002  0.85336463  0.95584139    -0.15000
F325        F  0.55030780  0.88640957  0.78722517    -0.15000
F326        F  0.63201263  0.93821599  0.83437157    -0.12700
C327        C  0.32581891  0.82304790  0.64689680     0.25300
C328        C  0.30007448  0.77330133  0.66163585    -0.22800
C329        C  0.25646411  0.73820946  0.64119347     0.20200
C330        C  0.23751928  0.75320093  0.60903836     0.25300
C331        C  0.26128155  0.80336922  0.59637682    -0.22700
C332        C  0.30631765  0.83796098  0.61470497     0.20200
F333        F  0.32872031  0.88723409  0.60429958    -0.12700
F334        F  0.36814634  0.85800270  0.66518546    -0.15000
F335        F  0.19301147  0.71957119  0.59288589    -0.15000
F336        F  0.23083527  0.68934981  0.65299188    -0.12700
C337        C  0.16730532  0.66332368  0.91487949     0.25300
C338        C  0.18465553  0.70968572  0.93535046    -0.22800
C339        C  0.23397752  0.74770789  0.92854162     0.20200
C340        C  0.26410997  0.74069305  0.89922428     0.25300
C341        C  0.24493857  0.69582590  0.87589334    -0.22700
C342        C  0.19704468  0.65654410  0.88523101     0.20200
F343        F  0.17878617  0.61183735  0.86523440    -0.12700
F344        F  0.11995586  0.62571658  0.92156113    -0.15000
F345        F  0.31083780  0.77911415  0.89156081    -0.15000
F346        F  0.25134093  0.79320483  0.94710426    -0.12700
C347        C  0.04210937  0.76975642  0.89300110     0.25300
C348        C  0.04339169  0.72669290  0.90463820    -0.22800
C349        C  0.01617308  0.68178492  0.88247052     0.20200
C350        C  0.98710537  0.67965018  0.84928142     0.25300
C351        C  0.98561597  0.72278438  0.83742658    -0.22700
C352        C  0.01383711  0.76801813  0.85946357     0.20200
F353        F  0.01377435  0.81064679  0.84877477    -0.12700
F354        F  0.06955676  0.81393328  0.91322894    -0.15000
F355        F  0.95854676  0.63488516  0.83028133    -0.15000
F356        F  0.01690519  0.63967611  0.89371304    -0.12700
C357        C  0.72847837  0.24730969  0.73120718     0.25300
C358        C  0.68877397  0.23401690  0.75964354    -0.22800
C359        C  0.67422357  0.19130407  0.78467902     0.20200
C360        C  0.69858803  0.16283125  0.78119275     0.25300
C361        C  0.73857379  0.17648624  0.75285536    -0.22700
C362        C  0.75301575  0.21929156  0.72797379     0.20200
F363        F  0.79055315  0.23385754  0.69949724    -0.12700
F364        F  0.74274413  0.28673003  0.70522443    -0.15000
F365        F  0.68360839  0.12253399  0.80628745    -0.15000
F366        F  0.63705103  0.17762533  0.81337339    -0.12700
C367        C  0.71589581  0.87682208  0.80061209     0.25300
C368        C  0.75945388  0.92342530  0.79975327    -0.22800
C369        C  0.79304972  0.93685574  0.83245562     0.20200
C370        C  0.77709868  0.91114701  0.86992094     0.25300
C371        C  0.72712766  0.87392858  0.87417018    -0.22700
C372        C  0.70168266  0.84966032  0.83768284     0.20200
F373        F  0.65601725  0.80811695  0.84055437    -0.12700
F374        F  0.68431131  0.86139300  0.76835377    -0.15000
F375        F  0.80582948  0.93080464  0.90373210    -0.15000
F376        F  0.83782536  0.97969620  0.83037540    -0.12700
C377        C  0.08090140  0.29025254  0.65924630     0.25300
C378        C  0.07079532  0.29402459  0.61752849    -0.22800
C379        C  0.02446924  0.25879890  0.60143930     0.20200
C380        C  0.98773234  0.22342251  0.62726981     0.25300
C381        C  0.99645494  0.22220106  0.66967591    -0.22700
C382        C  0.04394616  0.25418922  0.68513666     0.20200
F383        F  0.05386115  0.25206199  0.72553883    -0.12700
F384        F  0.12631092  0.32163329  0.67502012    -0.15000
F385        F  0.94313397  0.19055958  0.61074087    -0.15000
F386        F  0.01347003  0.25987077  0.56110903    -0.12700
C387        C  0.21190408  0.53727552  0.64754822     0.25300
C388        C  0.25370446  0.54073975  0.66728848    -0.22800
C389        C  0.27095905  0.50786495  0.65397204     0.20200
C390        C  0.24601207  0.47150306  0.62332831     0.25300
C391        C  0.20366387  0.46729965  0.60461197    -0.22700
C392        C  0.18709686  0.50079162  0.61676108     0.20200
F393        F  0.14526064  0.49646836  0.60021898    -0.12700
F394        F  0.19479570  0.56905368  0.65804155    -0.15000
F395        F  0.26159517  0.43827322  0.61356219    -0.15000
F396        F  0.31092388  0.50932970  0.67178713    -0.12700
C397        C  0.33072938  0.51773930  0.92211162     0.25300
C398        C  0.33336840  0.47631143  0.90666491    -0.22800
C399        C  0.35850795  0.48077387  0.86862309     0.20200
C400        C  0.37644199  0.52414741  0.84453941     0.25300
C401        C  0.36950873  0.56404925  0.85797450    -0.22700
C402        C  0.34863058  0.56123108  0.89816752     0.20200
F403        F  0.34170547  0.59886183  0.91333168    -0.12700
F404        F  0.30627354  0.51437032  0.95843070    -0.15000
F405        F  0.39808059  0.52575545  0.80712402    -0.15000
F406        F  0.36304139  0.44166691  0.85355302    -0.12700
C407        C  0.50001240  0.19164574  0.73636131     0.25300
C408        C  0.52650124  0.23622102  0.75978739    -0.22800
C409        C  0.49851895  0.25253886  0.78375478     0.20200
C410        C  0.44621631  0.22555960  0.78422868     0.25300
C411        C  0.41971739  0.18058016  0.76134740    -0.22700
C412        C  0.44764584  0.16405630  0.73750722     0.20200
F413        F  0.42441550  0.12145526  0.71451900    -0.12700
F414        F  0.52465319  0.17510806  0.71122991    -0.15000
F415        F  0.42164274  0.24350630  0.80787226    -0.15000
F416        F  0.52167966  0.29403514  0.80801371    -0.12700
C417        C  0.16145732  0.88063148  0.70281217     0.25300
C418        C  0.16645472  0.92727550  0.69396153    -0.22800
C419        C  0.15094775  0.93536370  0.65575482     0.20200
C420        C  0.13999770  0.90090873  0.62378897     0.25300
C421        C  0.14675663  0.85945783  0.62978279    -0.22700
C422        C  0.15026108  0.84589158  0.67078704     0.20200
F423        F  0.15050289  0.80265491  0.67867174    -0.12700
F424        F  0.17286776  0.87111423  0.74073409    -0.15000
F425        F  0.13022466  0.91209991  0.58583853    -0.15000
F426        F  0.15100397  0.97887284  0.64832577    -0.12700
C427        C  0.19199410  0.25012187  0.89324817     0.25300
C428        C  0.21689888  0.30058882  0.88037003    -0.22800
C429        C  0.22485936  0.31095104  0.83738048     0.20200
C430        C  0.21618135  0.27268967  0.80915374     0.25300
C431        C  0.19916471  0.22402682  0.82347773    -0.22700
C432        C  0.18400024  0.21224535  0.86500661     0.20200
F433        F  0.16588100  0.16462790  0.87894211    -0.12700
F434        F  0.17925142  0.23751397  0.93359830    -0.15000
F435        F  0.22988902  0.28421119  0.76877139    -0.15000
F436        F  0.24507746  0.35850657  0.82277260    -0.12700
C437        C  0.92893933  0.22988536  0.93137940     0.25300
C438        C  0.88761630  0.21935534  0.95736553    -0.22800
C439        C  0.84077335  0.17982033  0.94630183     0.20200
C440        C  0.83533474  0.15161366  0.91017050     0.25300
C441        C  0.87668435  0.16246070  0.88379495    -0.22700
C442        C  0.92357042  0.20195769  0.89515605     0.20200
F443        F  0.96429733  0.21470497  0.87067540    -0.12700
F444        F  0.97480731  0.26824308  0.94054837    -0.15000
F445        F  0.78933327  0.11321413  0.90138563    -0.15000
F446        F  0.80036367  0.16723517  0.97117065    -0.12700
C447        C  0.12432247  0.37295873  0.40645823     0.25300
C448        C  0.11255763  0.32367113  0.39468368    -0.22800
C449        C  0.11010546  0.29090685  0.42596925     0.20200
C450        C  0.12072677  0.30701728  0.46690354     0.25300
C451        C  0.13242422  0.35598759  0.47890844    -0.22700
C452        C  0.13390524  0.38882002  0.44820102     0.20200
F453        F  0.14361481  0.43577751  0.45859920    -0.12700
F454        F  0.12780539  0.40631634  0.37756622    -0.15000
F455        F  0.12015066  0.27417226  0.49500433    -0.15000
F456        F  0.09861487  0.24298221  0.41708253    -0.12700
C457        C  0.27046470  0.37582265  0.09810643     0.25300
C458        C  0.24987493  0.32491275  0.10924493    -0.22800
C459        C  0.23930548  0.28931725  0.07769314     0.20200
C460        C  0.24741065  0.30379755  0.03600403     0.25300
C461        C  0.26515838  0.35431876  0.02452958    -0.22700
C462        C  0.27773726  0.39031516  0.05628344     0.20200
F463        F  0.29406922  0.43913201  0.04703593    -0.12700
F464        F  0.27953023  0.41119155  0.12758418    -0.15000
F465        F  0.23695674  0.26776477  0.00688698    -0.15000
F466        F  0.21963063  0.24001357  0.08717289    -0.12700
C467        C  0.01086534  0.24644461  0.12775383     0.25300
C468        C  0.03560242  0.28957080  0.15288339    -0.22800
C469        C  0.03476778  0.33337579  0.14222354     0.20200
C470        C  0.00843644  0.33347687  0.10776787     0.25300
C471        C  0.98321456  0.29008893  0.08328743    -0.22700
C472        C  0.98533187  0.24691050  0.09309395     0.20200
F473        F  0.95970216  0.20394669  0.07087978    -0.12700
F474        F  0.01051313  0.20325217  0.13715602    -0.15000
F475        F  0.00676263  0.37566368  0.09859290    -0.15000
F476        F  0.06033016  0.37633871  0.16441579    -0.12700
C477        C  0.30902774  0.15169121  0.59147931     0.25300
C478        C  0.28471450  0.16996391  0.61819303    -0.22800
C479        C  0.28993291  0.21712539  0.60981580     0.20200
C480        C  0.31810622  0.24498776  0.57537041     0.25300
C481        C  0.34168000  0.22632370  0.54822889    -0.22700
C482        C  0.33714863  0.17950133  0.55702589     0.20200
F483        F  0.35860387  0.15972521  0.53163351    -0.12700
F484        F  0.30517814  0.10633787  0.59844971    -0.15000
F485        F  0.32323159  0.29099989  0.56912383    -0.15000
F486        F  0.26962342  0.23736450  0.63596717    -0.12700
C487        C  0.28622842  0.29234314  0.42998566     0.25300
C488        C  0.33828279  0.31769746  0.42663580    -0.22800
C489        C  0.36145150  0.34509811  0.39025761     0.20200
C490        C  0.33335690  0.34007493  0.35553492     0.25300
C491        C  0.28158778  0.30849759  0.35701835    -0.22700
C492        C  0.25814222  0.28769648  0.39549835     0.20200
F493        F  0.20782455  0.26169998  0.39981084    -0.12700
F494        F  0.26218342  0.26808188  0.46532008    -0.15000
F495        F  0.35714609  0.36399979  0.32004666    -0.15000
F496        F  0.41174902  0.37341230  0.38715930    -0.12700
C497        C  0.79703461  0.07434990  0.51583701     0.25300
C498        C  0.76793681  0.09794206  0.51174823    -0.22800
C499        C  0.74269527  0.10176107  0.54721575     0.20200
C500        C  0.74927088  0.08608346  0.58586368     0.25300
C501        C  0.78152344  0.06647197  0.59046391    -0.22700
C502        C  0.80378328  0.05890408  0.55481182     0.20200
F503        F  0.83544758  0.04058977  0.55806319    -0.12700
F504        F  0.82061274  0.06774310  0.48244090    -0.15000
F505        F  0.72648522  0.09328809  0.61959542    -0.15000
F506        F  0.71417671  0.12387529  0.54536817    -0.12700
C507        C  0.75295860  0.84579684  0.41477687     0.25300
C508        C  0.72593669  0.85349789  0.38428682    -0.22800
C509        C  0.67539890  0.83814740  0.39260615     0.20200
C510        C  0.65278589  0.81677725  0.43054961     0.25300
C511        C  0.67974670  0.80968897  0.46159528    -0.22700
C512        C  0.73032852  0.82439696  0.45304716     0.20200
F513        F  0.75851907  0.81876824  0.48174028    -0.12700
F514        F  0.80160641  0.86007266  0.40805123    -0.15000
F515        F  0.60396122  0.80230208  0.43629645    -0.15000
F516        F  0.64697388  0.84275736  0.36348400    -0.12700
C517        C  0.69427599  0.94055199  0.08386236     0.25300
C518        C  0.74493405  0.95827851  0.09174657    -0.22800
C519        C  0.77859238  0.97234184  0.05813530     0.20200
C520        C  0.76127037  0.96385953  0.01740964     0.25300
C521        C  0.70990790  0.94156858  0.00952953    -0.22700
C522        C  0.67698011  0.93261688  0.04319235     0.20200
F523        F  0.62744320  0.91215387  0.03709033    -0.12700
F524        F  0.66090486  0.92803760  0.11577000    -0.15000
F525        F  0.79468189  0.97543927  0.98569348    -0.15000
F526        F  0.82762878  0.98990107  0.06464840    -0.12700
C527        C  0.81381606  0.15700175  0.32818697     0.25300
C528        C  0.82779131  0.14838895  0.36748068    -0.22800
C529        C  0.85288464  0.12092592  0.36906417     0.20200
C530        C  0.85195725  0.09221809  0.33492577     0.25300
C531        C  0.82701607  0.09183759  0.29907295    -0.22700
C532        C  0.81157316  0.12710142  0.29445290     0.20200
F533        F  0.78891161  0.12824332  0.25932045    -0.12700
F534        F  0.79524828  0.18852122  0.32375566    -0.15000
F535        F  0.86899150  0.05938146  0.33889691    -0.15000
F536        F  0.87199755  0.11616702  0.40500588    -0.12700
C537        C  0.50531709  0.31227739  0.41705687     0.25300
C538        C  0.46039305  0.26875776  0.42711960    -0.22800
C539        C  0.44212370  0.22777449  0.39957163     0.20200
C540        C  0.46702807  0.23121712  0.36177673     0.25300
C541        C  0.51028140  0.27607367  0.35058918    -0.22700
C542        C  0.53000614  0.31595511  0.37931013     0.20200
F543        F  0.57309883  0.35892531  0.37071136    -0.12700
F544        F  0.52295494  0.35305634  0.44232704    -0.15000
F545        F  0.44708004  0.19188573  0.33499180    -0.15000
F546        F  0.39738104  0.18638835  0.40729331    -0.12700
C547        C  0.65865228  0.13005572  0.38426202     0.25300
C548        C  0.69030842  0.16343730  0.41454304    -0.22800
C549        C  0.70086590  0.21340535  0.41404207     0.20200
C550        C  0.68697464  0.23154327  0.38038451     0.25300
C551        C  0.66145357  0.19966998  0.34702714    -0.22700
C552        C  0.64436028  0.14808003  0.35055508     0.20200
F553        F  0.61846197  0.11611990  0.31947093    -0.12700
F554        F  0.64835671  0.08157309  0.38385462    -0.15000
F555        F  0.70099591  0.28105787  0.37928004    -0.15000
F556        F  0.73106440  0.24629752  0.44295183    -0.12700
C557        C  0.78136655  0.25569017  0.07468318     0.25300
C558        C  0.83177063  0.29266054  0.07327447    -0.22800
C559        C  0.84868542  0.33331896  0.10151600     0.20200
C560        C  0.81690347  0.33502045  0.13219422     0.25300
C561        C  0.76714243  0.29693385  0.13473976    -0.22700
C562        C  0.74929037  0.25802794  0.10492067     0.20200
F563        F  0.70099189  0.22101493  0.10609751    -0.12700
F564        F  0.76376659  0.21564965  0.04864427    -0.15000
F565        F  0.83458879  0.37444718  0.15891195    -0.15000
F566        F  0.89673503  0.37099064  0.10017087    -0.12700
C567        C  0.85146219  0.60399419  0.54864233     0.25300
C568        C  0.86601229  0.64004503  0.51686485    -0.22800
C569        C  0.88946741  0.69120486  0.52872845     0.20200
C570        C  0.89825969  0.70579536  0.57030781     0.25300
C571        C  0.88345926  0.67012036  0.60214792    -0.22700
C572        C  0.86012482  0.61883822  0.59072699     0.20200
F573        F  0.84363237  0.58281176  0.62032143    -0.12700
F574        F  0.82875899  0.55436336  0.53918345    -0.15000
F575        F  0.92082079  0.75555274  0.57937072    -0.15000
F576        F  0.90299686  0.72799605  0.50015102    -0.12700
C577        C  0.74933742  0.51893597  0.37270290     0.25300
C578        C  0.78823760  0.52126590  0.39586881    -0.22800
C579        C  0.80357184  0.48581925  0.38765016     0.20200
C580        C  0.78072738  0.44905478  0.35666165     0.25300
C581        C  0.74236157  0.44740760  0.33272659    -0.22700
C582        C  0.72662472  0.48262874  0.34173763     0.20200
F583        F  0.69063214  0.48371099  0.31929712    -0.12700
F584        F  0.73588091  0.55461680  0.37789364    -0.15000
F585        F  0.79690073  0.41575520  0.34968599    -0.15000
F586        F  0.84310450  0.48905194  0.40765719    -0.12700
C587        C  0.23363532  0.05734153  0.98198705     0.25300
C588        C  0.28290058  0.06862649  0.98982730    -0.22800
C589        C  0.31181523  0.06602273  0.95649649     0.20200
C590        C  0.29384281  0.05756556  0.91615172     0.25300
C591        C  0.24644290  0.05061033  0.90824694    -0.22700
C592        C  0.21572896  0.04850880  0.94154710     0.20200
F593        F  0.17010759  0.04267982  0.93454930    -0.12700
F594        F  0.20319425  0.05696719  0.01305274    -0.15000
F595        F  0.32404068  0.05930684  0.88426604    -0.15000
F596        F  0.35877767  0.07491295  0.96219340    -0.12700
C597        C  0.45955120  0.14647129  0.07524556     0.25300
C598        C  0.41494959  0.11016642  0.09349216    -0.22800
C599        C  0.41552347  0.09292011  0.13355998     0.20200
C600        C  0.45817252  0.11734377  0.15750223     0.25300
C601        C  0.50101332  0.15931355  0.14151532    -0.22700
C602        C  0.50244268  0.17083742  0.09894528     0.20200
F603        F  0.54385856  0.20893102  0.08104171    -0.12700
F604        F  0.45994450  0.16343697  0.03654692    -0.15000
F605        F  0.45567624  0.10293140  0.19745338    -0.15000
F606        F  0.37273500  0.05675288  0.15145470    -0.12700
C607        C  0.07693935  0.80842511  0.09487290     0.25300
C608        C  0.11981656  0.82894658  0.11896903    -0.22800
C609        C  0.16008719  0.82255809  0.10518663     0.20200
C610        C  0.15854907  0.79897140  0.06747164     0.25300
C611        C  0.11653586  0.78034261  0.04239130    -0.22700
C612        C  0.07524608  0.78443677  0.05715390     0.20200
F613        F  0.03271095  0.76503108  0.03530472    -0.12700
F614        F  0.03664546  0.81193817  0.10742258    -0.15000
F615        F  0.19897660  0.79544334  0.05538318    -0.15000
F616        F  0.20147808  0.83892333  0.12823219    -0.12700
C617        C  0.20873324  0.86694140  0.41242634     0.25300
C618        C  0.19595574  0.90468449  0.40552692    -0.22800
C619        C  0.19389587  0.93250708  0.43965367     0.20200
C620        C  0.20072463  0.92042867  0.47982141     0.25300
C621        C  0.20959350  0.88019111  0.48667566    -0.22700
C622        C  0.21524635  0.85485348  0.45244408     0.20200
F623        F  0.22338707  0.81569861  0.45772962    -0.12700
F624        F  0.21281067  0.83970466  0.38058162    -0.15000
F625        F  0.19735405  0.94736461  0.51217780    -0.15000
F626        F  0.18250583  0.96945616  0.43456378    -0.12700
C627        C  0.96133023  0.77503218  0.34432791     0.25300
C628        C  0.98616189  0.76042797  0.31511407    -0.22800
C629        C  0.97631913  0.71067349  0.31424213     0.20200
C630        C  0.94252414  0.67589703  0.34230149     0.25300
C631        C  0.91873258  0.69053505  0.37239648    -0.22700
C632        C  0.92795116  0.74021794  0.37315300     0.20200
F633        F  0.90500406  0.75496702  0.40182261    -0.12700
F634        F  0.97197389  0.82357037  0.34675783    -0.15000
F635        F  0.93512605  0.62840910  0.34153281    -0.15000
F636        F  0.00116695  0.69630095  0.28719395    -0.12700
C637        C  0.28196985  0.11626840  0.20602076     0.25300
C638        C  0.23599105  0.07215052  0.20555681    -0.22800
C639        C  0.20387507  0.06297746  0.17238048     0.20200
C640        C  0.22251000  0.08984819  0.13566546     0.25300
C641        C  0.27334868  0.12500940  0.13263673    -0.22700
C642        C  0.29943183  0.14483644  0.16981618     0.20200
F643        F  0.34665160  0.18412271  0.16857264    -0.12700
F644        F  0.31249508  0.12743819  0.23871055    -0.15000
F645        F  0.19405932  0.07384638  0.10141611    -0.15000
F646        F  0.15737930  0.02240441  0.17302023    -0.12700
C647        C  0.73213296  0.61557413  0.94661755     0.25300
C648        C  0.74358918  0.65102156  0.97867285    -0.22800
C649        C  0.76519528  0.70231379  0.96764332     0.20200
C650        C  0.77778699  0.71770092  0.92633991     0.25300
C651        C  0.76787272  0.68234863  0.89474663    -0.22700
C652        C  0.74394807  0.63103525  0.90526181     0.20200
F653        F  0.73494318  0.59574322  0.87572946    -0.12700
F654        F  0.71142303  0.56593613  0.95515763    -0.15000
F655        F  0.80006090  0.76737074  0.91730739    -0.15000
F656        F  0.77468244  0.73815676  0.99672456    -0.12700
C657        C  0.63899037  0.51133822  0.12579098     0.25300
C658        C  0.67086089  0.52199366  0.09101016    -0.22800
C659        C  0.68160019  0.48515183  0.07635384     0.20200
C660        C  0.66503917  0.44055684  0.09863754     0.25300
C661        C  0.63727245  0.43203671  0.13612448    -0.22700
C662        C  0.62220638  0.46680727  0.14803370     0.20200
F663        F  0.59304236  0.45892506  0.18228970    -0.12700
F664        F  0.62613922  0.54545899  0.13952257    -0.15000
F665        F  0.67964011  0.40772201  0.08500294    -0.15000
F666        F  0.71207722  0.49428409  0.04277032    -0.12700
C667        C  0.80230223  0.75026303  0.11379691     0.25300
C668        C  0.77139693  0.69983103  0.12569705    -0.22800
C669        C  0.75589760  0.68938344  0.16771331     0.20200
C670        C  0.76505874  0.72850311  0.19527523     0.25300
C671        C  0.79038482  0.77820987  0.18144050    -0.22700
C672        C  0.81106900  0.78899433  0.14134746     0.20200
F673        F  0.83626474  0.83717915  0.12777397    -0.12700
F674        F  0.82167032  0.76254450  0.07479671    -0.15000
F675        F  0.74511318  0.71761770  0.23419450    -0.15000
F676        F  0.72877104  0.64150200  0.18162820    -0.12700
C677        C  0.26757792  0.57561202  0.27713684     0.25300
C678        C  0.31114644  0.60373186  0.25280278    -0.22800
C679        C  0.32760899  0.57687628  0.22724088     0.20200
C680        C  0.30150674  0.52398257  0.22609283     0.25300
C681        C  0.25756198  0.49610317  0.24985307    -0.22700
C682        C  0.24100148  0.52274371  0.27535263     0.20200
F683        F  0.19981836  0.49748468  0.29984087    -0.12700
F684        F  0.25129894  0.59917982  0.30378584    -0.15000
F685        F  0.31857204  0.50003158  0.20064106    -0.15000
F686        F  0.36830385  0.60180537  0.20217727    -0.12700
C687        C  0.55235436  0.84581351  0.26904100     0.25300
C688        C  0.58020371  0.82869456  0.24574636    -0.22800
C689        C  0.55365917  0.78190257  0.22530929     0.20200
C690        C  0.50144429  0.75393373  0.22728549     0.25300
C691        C  0.47353778  0.77099933  0.25044431    -0.22700
C692        C  0.50003064  0.81729056  0.27164019     0.20200
F693        F  0.47543283  0.83477347  0.29580014    -0.12700
F694        F  0.57561580  0.89008992  0.28984356    -0.15000
F695        F  0.47824095  0.71070532  0.20508623    -0.15000
F696        F  0.57805025  0.76299577  0.20260010    -0.12700
C697        C  0.26649429  0.75169400  0.22299606     0.25300
C698        C  0.30887794  0.76843931  0.24775417    -0.22800
C699        C  0.32405470  0.81273764  0.27133317     0.20200
C700        C  0.29802936  0.83943456  0.26993061     0.25300
C701        C  0.25525190  0.82192678  0.24598914    -0.22700
C702        C  0.23969534  0.77765719  0.22266054     0.20200
F703        F  0.19864685  0.75976197  0.19899289    -0.12700
F704        F  0.25129494  0.71061237  0.19839788    -0.15000
F705        F  0.31316715  0.88107597  0.29380941    -0.15000
F706        F  0.36296592  0.82924906  0.29729401    -0.12700
loop_ 
_geom_bond_atom_site_label_1 
_geom_bond_atom_site_label_2 
_geom_bond_distance 
_geom_bond_site_symmetry_2 
_ccdc_geom_bond_type 
C1            N2   1.372       .  A
C1            N6   1.365   1_445  A
C1           C42   1.502   1_545  S
N2            C3   1.372       .  A
C3            N4   1.374       .  A
C3          C136   1.516       .  S
N4            C5   1.374   1_455  A
C5            N6   1.365   1_545  A
C5           C98   1.507   1_545  S
C7          C698   1.510       .  S
C7            C8   1.412       .  A
C7           C12   1.414       .  A
C8            C9   1.412       .  A
C8           H13   1.074       .  S
C9          C691   1.513       .  S
C9           C10   1.417       .  A
C10          C11   1.416       .  A
C10          H14   1.083       .  S
C11         C678   1.514       .  S
C11          C12   1.414       .  A
C12          H15   1.087       .  S
C16          N17   1.368       .  A
C16          N21   1.358       .  A
C16         C648   1.499   1_554  S
N17          C18   1.366       .  A
C18          N19   1.355       .  A
C18         C658   1.479       .  S
N19          C20   1.352       .  A
C20          N21   1.356       .  A
C20         C668   1.487       .  S
Zn22         O26   1.888       .  S
Zn22         O27   2.033       .  S
Zn22         O31   1.961       .  S
Zn22         O38   1.948       .  S
Zn23         O26   1.891       .  S
Zn23         O28   1.968       .  S
Zn23         O30   2.074       .  S
Zn23         O34   1.973       .  S
Zn24         O26   1.922       .  S
Zn24         O29   2.036       .  S
Zn24         O32   2.082       .  S
Zn24         O35   2.076       .  S
Zn25         O26   1.943       .  S
Zn25         O33   2.093       .  S
Zn25         O36   2.020   1_565  S
Zn25         O37   2.099       .  S
O27          C39   1.272       .  A
O28          C40   1.271       .  A
O29          C41   1.275       .  A
O30          C39   1.280       .  A
O31          C41   1.269       .  A
O32          C40   1.285       .  A
O33          C42   1.286       .  A
O34          C43   1.275   1_565  A
O35          C42   1.285       .  A
O36          C43   1.273       .  A
O37          C44   1.289       .  A
O38          C44   1.269       .  A
C39         C701   1.493       .  S
C40         C608   1.493       .  S
C41         C628   1.463   1_455  S
C43         C638   1.460       .  S
C44         C618   1.490       .  S
C45          N46   1.369       .  A
C45          N50   1.366       .  A
C45         C588   1.494   1_554  S
N46          C47   1.360       .  A
C47          N48   1.344       .  A
C47         C598   1.468       .  S
N48          C49   1.346       .  A
C49          N50   1.359       .  A
C49         C641   1.478       .  S
C51          N52   1.363       .  A
C51          N56   1.377       .  A
C51         C568   1.509       .  S
N52          C53   1.353       .  A
C53          N54   1.345       .  A
C53         C631   1.466       .  S
N54          C55   1.348       .  A
C55          N56   1.374       .  A
C55         C578   1.478       .  S
Zn57         O61   1.950       .  S
Zn57         O62   2.064       .  S
Zn57         O66   2.001       .  S
Zn57         O73   2.030       .  S
Zn58         O61   1.925       .  S
Zn58         O63   1.963       .  S
Zn58         O65   1.989       .  S
Zn58         O69   1.969       .  S
Zn59         O61   1.961       .  S
Zn59         O64   2.064       .  S
Zn59         O67   2.091       .  S
Zn59         O70   2.015       .  S
Zn60         O61   1.974       .  S
Zn60         O68   2.028       .  S
Zn60         O71   2.063       .  S
Zn60         O72   2.017       .  S
O62          C74   1.281       .  A
O63          C75   1.266       .  A
O64          C76   1.279       .  A
O65          C74   1.270       .  A
O66          C76   1.271       .  A
O67          C75   1.284       .  A
O68          C77   1.275       .  A
O69          C78   1.268       .  A
O70          C77   1.275       .  A
O71          C78   1.280       .  A
O72          C79   1.273       .  A
O73          C79   1.277       .  A
C74         C661   1.493       .  S
C75         C561   1.481       .  S
C76         C581   1.499       .  S
C77         C551   1.479       .  S
C78         C601   1.490       .  S
C79         C541   1.485       .  S
Zn80         O84   1.929       .  S
Zn80         O85   1.985   1_565  S
Zn80         O89   1.964       .  S
Zn80         O96   2.073       .  S
Zn81         O84   1.968       .  S
Zn81         O86   2.091   1_565  S
Zn81         O88   2.008   1_565  S
Zn81         O92   2.090       .  S
Zn82         O84   1.967       .  S
Zn82         O87   2.088       .  S
Zn82         O90   2.095       .  S
Zn82         O93   2.043       .  S
Zn83         O84   1.908       .  S
Zn83         O91   1.971       .  S
Zn83         O94   1.981       .  S
Zn83         O95   2.036       .  S
O85          C97   1.274       .  A
O86          C98   1.284   1_545  A
O87          C99   1.284       .  A
O88          C97   1.271       .  A
O89          C99   1.269       .  A
O90          C98   1.286       .  A
O91         C100   1.271       .  A
O92         C101   1.285       .  A
O93         C100   1.276       .  A
O94         C101   1.272       .  A
O95         C102   1.273       .  A
O96         C102   1.278       .  A
C97         C531   1.454       .  S
C99         C508   1.489       .  S
C100        C671   1.460       .  S
C101        C518   1.484       .  S
C102        C688   1.511       .  S
C103        N104   1.366       .  A
C103        N108   1.371       .  A
C103        C498   1.498       .  S
N104        C105   1.361       .  A
C105        N106   1.343       .  A
C105        C528   1.483       .  S
N106        C107   1.343       .  A
C107        N108   1.361       .  A
C107        C548   1.464       .  S
C109        N110   1.361       .  A
C109        N114   1.374       .  A
C109        C481   1.493       .  S
N110        C111   1.355       .  A
C111        N112   1.344       .  A
C111        C488   1.473       .  S
N112        C113   1.344       .  A
C113        N114   1.368       .  A
C113        C538   1.471       .  S
Zn115       O119   1.968       .  S
Zn115       O120   2.021       .  S
Zn115       O124   2.048       .  S
Zn115       O131   2.037       .  S
Zn116       O119   1.949       .  S
Zn116       O121   1.998       .  S
Zn116       O123   1.969       .  S
Zn116       O127   2.103       .  S
Zn117       O119   1.987       .  S
Zn117       O122   2.062       .  S
Zn117       O125   2.051       .  S
Zn117       O128   2.041       .  S
Zn118       O119   1.952       .  S
Zn118       O126   1.947       .  S
Zn118       O129   2.108       .  S
Zn118       O130   2.025       .  S
O120        C132   1.278       .  A
O121        C133   1.274       .  A
O122        C134   1.274       .  A
O123        C132   1.272       .  A
O124        C134   1.272       .  A
O125        C133   1.277       .  A
O126        C135   1.269       .  A
O127        C136   1.280       .  A
O128        C135   1.281       .  A
O129        C136   1.280       .  A
O130        C137   1.277       .  A
O131        C137   1.278       .  A
C132        C491   1.476       .  S
C133        C448   1.499       .  S
C134        C681   1.504       .  S
C135        C468   1.470       .  S
C137        C458   1.488       .  S
C138        N139   1.374   1_556  A
C138        N143   1.360   1_556  A
C138        C438   1.493       .  S
N139        C140   1.371       .  A
C140        N141   1.347       .  A
C140        C558   1.485       .  S
N141        C142   1.343       .  A
C142        N143   1.354       .  A
C142        C471   1.459       .  S
C144        N145   1.365   1_665  A
C144        N149   1.373       .  A
C144        C207   1.502   1_565  S
N145        C146   1.364   1_545  A
C146        N147   1.372       .  A
C146        C168   1.501   1_565  S
N147        C148   1.370   1_455  A
C148        N149   1.372       .  A
C148        C257   1.514       .  S
Zn150       O154   1.914       .  S
Zn150       O155   1.973       .  S
Zn150       O159   1.978       .  S
Zn150       O166   2.071       .  S
Zn151       O154   1.955       .  S
Zn151       O156   2.106       .  S
Zn151       O158   2.099       .  S
Zn151       O162   2.033       .  S
Zn152       O154   1.957       .  S
Zn152       O157   1.987   1_545  S
Zn152       O160   2.055       .  S
Zn152       O163   2.060       .  S
Zn153       O154   1.892       .  S
Zn153       O161   1.976       .  S
Zn153       O164   1.967       .  S
Zn153       O165   2.036       .  S
O155        C167   1.269       .  A
O156        C168   1.287       .  A
O157        C169   1.270       .  A
O158        C167   1.286       .  A
O159        C169   1.275   1_545  A
O160        C168   1.280       .  A
O161        C170   1.270       .  A
O162        C171   1.276       .  A
O163        C170   1.280       .  A
O164        C171   1.272       .  A
O165        C172   1.275       .  A
O166        C172   1.280       .  A
C167        C478   1.491       .  S
C169        C418   1.451       .  S
C170        C591   1.471       .  S
C171        C431   1.457       .  S
C172        C411   1.509       .  S
C173        N174   1.360       .  A
C173        N178   1.370       .  A
C173        C461   1.498   1_556  S
N174        C175   1.356       .  A
C175        N176   1.349       .  A
C175        C428   1.485       .  S
N176        C177   1.351       .  A
C177        N178   1.367       .  A
C177        C398   1.478       .  S
C179        N180   1.374       .  A
C179        N184   1.352       .  A
C179        C451   1.494       .  S
N180        C181   1.376       .  A
C181        N182   1.356       .  A
C181        C391   1.481       .  S
N182        C183   1.350       .  A
C183        N184   1.347       .  A
C183        C378   1.473       .  S
Zn185       O189   1.968       .  S
Zn185       O190   2.107       .  S
Zn185       O194   2.009   1_545  S
Zn185       O201   2.086       .  S
Zn186       O189   1.884       .  S
Zn186       O191   2.014       .  S
Zn186       O193   1.958       .  S
Zn186       O197   1.953       .  S
Zn187       O189   1.919       .  S
Zn187       O192   1.991       .  S
Zn187       O195   2.087       .  S
Zn187       O198   1.998       .  S
Zn188       O189   1.948       .  S
Zn188       O196   2.087       .  S
Zn188       O199   2.034       .  S
Zn188       O200   2.082       .  S
O190        C202   1.286       .  A
O191        C203   1.273       .  A
O192        C204   1.278   1_545  A
O193        C202   1.269       .  A
O194        C204   1.273       .  A
O195        C203   1.282       .  A
O196        C205   1.285       .  A
O197        C206   1.269       .  A
O198        C205   1.272       .  A
O199        C206   1.276       .  A
O200        C207   1.284       .  A
O201        C207   1.284       .  A
C202        C501   1.486       .  S
C203        C361   1.506       .  S
C204        C368   1.460       .  S
C205        C441   1.500       .  S
C206        C381   1.467       .  S
C208        N209   1.361   1_554  A
C208        N213   1.371   1_554  A
C208        C611   1.495       .  S
N209        C210   1.354       .  A
C210        N211   1.344       .  A
C210        C348   1.459       .  S
N211        C212   1.348       .  A
C212        N213   1.365       .  A
C212        C338   1.471       .  S
Zn214       O218   1.951       .  S
Zn214       O219   1.993       .  S
Zn214       O223   2.080       .  S
Zn214       O230   2.073       .  S
Zn215       O218   1.960       .  S
Zn215       O220   2.093       .  S
Zn215       O222   2.039       .  S
Zn215       O226   1.993       .  S
Zn216       O218   1.907       .  S
Zn216       O221   1.961       .  S
Zn216       O224   1.962       .  S
Zn216       O227   1.960       .  S
Zn217       O218   1.951       .  S
Zn217       O225   2.083       .  S
Zn217       O228   2.046       .  S
Zn217       O229   2.018       .  S
O219        C231   1.273       .  A
O220        C232   1.282       .  A
O221        C233   1.266       .  A
O222        C231   1.278       .  A
O223        C233   1.283       .  A
O224        C232   1.267       .  A
O225        C234   1.284       .  A
O226        C235   1.272       .  A
O227        C234   1.267       .  A
O228        C235   1.281       .  A
O229        C236   1.272       .  A
O230        C236   1.280       .  A
C231        C328   1.489       .  S
C232        C321   1.490       .  S
C233        C341   1.478       .  S
C234        C401   1.494       .  S
C235        C308   1.485       .  S
C236        C388   1.502       .  S
Zn237       O241   1.968       .  S
Zn237       O242   2.067       .  S
Zn237       O246   2.023       .  S
Zn237       O253   2.011       .  S
Zn238       O241   1.972       .  S
Zn238       O243   2.081       .  S
Zn238       O245   2.069       .  S
Zn238       O249   2.056       .  S
Zn239       O241   1.938       .  S
Zn239       O244   1.925       .  S
Zn239       O247   2.016       .  S
Zn239       O250   2.095       .  S
Zn240       O241   1.957       .  S
Zn240       O248   2.112       .  S
Zn240       O251   1.959       .  S
Zn240       O252   2.040       .  S
O242        C254   1.277       .  A
O243        C255   1.280       .  A
O244        C256   1.267       .  A
O245        C254   1.277       .  A
O246        C256   1.278       .  A
O247        C255   1.276       .  A
O248        C257   1.281       .  A
O249        C258   1.285       .  A
O250        C257   1.279       .  A
O251        C258   1.272       .  A
O252        C259   1.277       .  A
O253        C259   1.273       .  A
C254        C291   1.507       .  S
C255        C571   1.503       .  S
C256        C298   1.461       .  S
C258        C351   1.473       .  S
C259        C651   1.485       .  S
C260        N261   1.374       .  A
C260        N265   1.361       .  A
C260        C511   1.497       .  S
N261        C262   1.365       .  A
C262        N263   1.341       .  A
C262        C311   1.463       .  S
N263        C264   1.337       .  A
C264        N265   1.354       .  A
C264        C301   1.449       .  S
C266        N267   1.374       .  A
C266        N271   1.366       .  A
C266        C521   1.491   1_556  S
N267        C268   1.366       .  A
C268        N269   1.343       .  A
C268        C318   1.477       .  S
N269        C270   1.346       .  A
C270        N271   1.357       .  A
C270        C371   1.477       .  S
C272        N273   1.369       .  A
C272        N277   1.359       .  A
C272        C621   1.482       .  S
N273        C274   1.363       .  A
C274        N275   1.345       .  A
C274        C331   1.464       .  S
N275        C276   1.346       .  A
C276        N277   1.356       .  A
C276        C421   1.475       .  S
C278        C358   1.509       .  S
C278        C279   1.415       .  A
C278        C283   1.410       .  A
C279        C280   1.415       .  A
C279        H284   1.083       .  S
C280        C288   1.516       .  S
C280        C281   1.416       .  A
C281        C282   1.418       .  A
C281        H285   1.085       .  S
C282        C408   1.514       .  S
C282        C283   1.413       .  A
C283        H286   1.067       .  S
C287        C288   1.414       .  A
C287        C292   1.413       .  A
C287        F294   1.358       .  S
C288        C289   1.414       .  A
C289        C290   1.411       .  A
C289        F296   1.357       .  S
C290        C291   1.410       .  A
C290        F295   1.358       .  S
C291        C292   1.411       .  A
C292        F293   1.358       .  S
C297        C298   1.403       .  A
C297        C302   1.392       .  A
C297        F304   1.358       .  S
C298        C299   1.411       .  A
C299        C300   1.386       .  A
C299        F306   1.359       .  S
C300        C301   1.397       .  A
C300        F305   1.359       .  S
C301        C302   1.406       .  A
C302        F303   1.358       .  S
C307        C308   1.408       .  A
C307        C312   1.399       .  A
C307        F314   1.358       .  S
C308        C309   1.411       .  A
C309        C310   1.401       .  A
C309        F316   1.358       .  S
C310        C311   1.404       .  A
C310        F315   1.358       .  S
C311        C312   1.405       .  A
C312        F313   1.358       .  S
C317        C318   1.398       .  A
C317        C322   1.401       .  A
C317        F324   1.358       .  S
C318        C319   1.414       .  A
C319        C320   1.403       .  A
C319        F326   1.359       .  S
C320        C321   1.404       .  A
C320        F325   1.358       .  S
C321        C322   1.417       .  A
C322        F323   1.358       .  S
C327        C328   1.410       .  A
C327        C332   1.404       .  A
C327        F334   1.357       .  S
C328        C329   1.414       .  A
C329        C330   1.394       .  A
C329        F336   1.358       .  S
C330        C331   1.400       .  A
C330        F335   1.359       .  S
C331        C332   1.406       .  A
C332        F333   1.358       .  S
C337        C338   1.408       .  A
C337        C342   1.397       .  A
C337        F344   1.358       .  S
C338        C339   1.403       .  A
C339        C340   1.402       .  A
C339        F346   1.358       .  S
C340        C341   1.413       .  A
C340        F345   1.359       .  S
C341        C342   1.400       .  A
C342        F343   1.357       .  S
C347        C348   1.399       .  A
C347        C352   1.393       .  A
C347        F354   1.359       .  S
C348        C349   1.404       .  A
C349        C350   1.396   1_455  A
C349        F356   1.358       .  S
C350        C351   1.406       .  A
C350        F355   1.358       .  S
C351        C352   1.413   1_655  A
C352        F353   1.359       .  S
C357        C358   1.408       .  A
C357        C362   1.404       .  A
C357        F364   1.358       .  S
C358        C359   1.415       .  A
C359        C360   1.412       .  A
C359        F366   1.357       .  S
C360        C361   1.411       .  A
C360        F365   1.357       .  S
C361        C362   1.415       .  A
C362        F363   1.358       .  S
C367        C368   1.397       .  A
C367        C372   1.400       .  A
C367        F374   1.357       .  S
C368        C369   1.408       .  A
C369        C370   1.394       .  A
C369        F376   1.359       .  S
C370        C371   1.400       .  A
C370        F375   1.358       .  S
C371        C372   1.415       .  A
C372        F373   1.358       .  S
C377        C378   1.409       .  A
C377        C382   1.400       .  A
C377        F384   1.357       .  S
C378        C379   1.407       .  A
C379        C380   1.388   1_455  A
C379        F386   1.359       .  S
C380        C381   1.407       .  A
C380        F385   1.360       .  S
C381        C382   1.402   1_655  A
C382        F383   1.357       .  S
C387        C388   1.413       .  A
C387        C392   1.409       .  A
C387        F394   1.357       .  S
C388        C389   1.414       .  A
C389        C390   1.404       .  A
C389        F396   1.358       .  S
C390        C391   1.404       .  A
C390        F395   1.358       .  S
C391        C392   1.406       .  A
C392        F393   1.358       .  S
C397        C398   1.398       .  A
C397        C402   1.401       .  A
C397        F404   1.358       .  S
C398        C399   1.410       .  A
C399        C400   1.400       .  A
C399        F406   1.358       .  S
C400        C401   1.406       .  A
C400        F405   1.357       .  S
C401        C402   1.421       .  A
C402        F403   1.358       .  S
C407        C408   1.416       .  A
C407        C412   1.409       .  A
C407        F414   1.358       .  S
C408        C409   1.411       .  A
C409        C410   1.407       .  A
C409        F416   1.357       .  S
C410        C411   1.415       .  A
C410        F415   1.358       .  S
C411        C412   1.411       .  A
C412        F413   1.358       .  S
C417        C418   1.394       .  A
C417        C422   1.395       .  A
C417        F424   1.357       .  S
C418        C419   1.403       .  A
C419        C420   1.389       .  A
C419        F426   1.359       .  S
C420        C421   1.404       .  A
C420        F425   1.358       .  S
C421        C422   1.416       .  A
C422        F423   1.358       .  S
C427        C428   1.409       .  A
C427        C432   1.393       .  A
C427        F434   1.357       .  S
C428        C429   1.417       .  A
C429        C430   1.397       .  A
C429        F436   1.358       .  S
C430        C431   1.396       .  A
C430        F435   1.358       .  S
C431        C432   1.402       .  A
C432        F433   1.359       .  S
C437        C438   1.412       .  A
C437        C442   1.404       .  A
C437        F444   1.358       .  S
C438        C439   1.404       .  A
C439        C440   1.405       .  A
C439        F446   1.358       .  S
C440        C441   1.418       .  A
C440        F445   1.358       .  S
C441        C442   1.407       .  A
C442        F443   1.357       .  S
C447        C448   1.417       .  A
C447        C452   1.414       .  A
C447        F454   1.357       .  S
C448        C449   1.409       .  A
C449        C450   1.393       .  A
C449        F456   1.359       .  S
C450        C451   1.411       .  A
C450        F455   1.359       .  S
C451        C452   1.407       .  A
C452        F453   1.357       .  S
C457        C458   1.412       .  A
C457        C462   1.406       .  A
C457        F464   1.358       .  S
C458        C459   1.403       .  A
C459        C460   1.401       .  A
C459        F466   1.358       .  S
C460        C461   1.416       .  A
C460        F465   1.357       .  S
C461        C462   1.408       .  A
C462        F463   1.358       .  S
C467        C468   1.411       .  A
C467        C472   1.390   1_455  A
C467        F474   1.359       .  S
C468        C469   1.405       .  A
C469        C470   1.396       .  A
C469        F476   1.358       .  S
C470        C471   1.406   1_455  A
C470        F475   1.358       .  S
C471        C472   1.400       .  A
C472        F473   1.358       .  S
C477        C478   1.415       .  A
C477        C482   1.403       .  A
C477        F484   1.358       .  S
C478        C479   1.404       .  A
C479        C480   1.404       .  A
C479        F486   1.358       .  S
C480        C481   1.414       .  A
C480        F485   1.358       .  S
C481        C482   1.405       .  A
C482        F483   1.358       .  S
C487        C488   1.403       .  A
C487        C492   1.391       .  A
C487        F494   1.358       .  S
C488        C489   1.411       .  A
C489        C490   1.395       .  A
C489        F496   1.359       .  S
C490        C491   1.404       .  A
C490        F495   1.358       .  S
C491        C492   1.414       .  A
C492        F493   1.359       .  S
C497        C498   1.418       .  A
C497        C502   1.407       .  A
C497        F504   1.357       .  S
C498        C499   1.408       .  A
C499        C500   1.399       .  A
C499        F506   1.358       .  S
C500        C501   1.410       .  A
C500        F505   1.359       .  S
C501        C502   1.403       .  A
C502        F503   1.357       .  S
C507        C508   1.403       .  A
C507        C512   1.406       .  A
C507        F514   1.358       .  S
C508        C509   1.414       .  A
C509        C510   1.396       .  A
C509        F516   1.359       .  S
C510        C511   1.406       .  A
C510        F515   1.358       .  S
C511        C512   1.420       .  A
C512        F513   1.358       .  S
C517        C518   1.411       .  A
C517        C522   1.402       .  A
C517        F524   1.359       .  S
C518        C519   1.402       .  A
C519        C520   1.404       .  A
C519        F526   1.357       .  S
C520        C521   1.414       .  A
C520        F525   1.357   1_554  S
C521        C522   1.406       .  A
C522        F523   1.358       .  S
C527        C528   1.420       .  A
C527        C532   1.395       .  A
C527        F534   1.359       .  S
C528        C529   1.404       .  A
C529        C530   1.393       .  A
C529        F536   1.357       .  S
C530        C531   1.404       .  A
C530        F535   1.358       .  S
C531        C532   1.394       .  A
C532        F533   1.358       .  S
C537        C538   1.405       .  A
C537        C542   1.399       .  A
C537        F544   1.358       .  S
C538        C539   1.407       .  A
C539        C540   1.405       .  A
C539        F546   1.358       .  S
C540        C541   1.408       .  A
C540        F545   1.358       .  S
C541        C542   1.409       .  A
C542        F543   1.358       .  S
C547        C548   1.410       .  A
C547        C552   1.403       .  A
C547        F554   1.358       .  S
C548        C549   1.401       .  A
C549        C550   1.397       .  A
C549        F556   1.358       .  S
C550        C551   1.409       .  A
C550        F555   1.358       .  S
C551        C552   1.404       .  A
C552        F553   1.358       .  S
C557        C558   1.403       .  A
C557        C562   1.403       .  A
C557        F564   1.357       .  S
C558        C559   1.416       .  A
C559        C560   1.399       .  A
C559        F566   1.359       .  S
C560        C561   1.400       .  A
C560        F565   1.358       .  S
C561        C562   1.413       .  A
C562        F563   1.358       .  S
C567        C568   1.413       .  A
C567        C572   1.416       .  A
C567        F574   1.357       .  S
C568        C569   1.416       .  A
C569        C570   1.399       .  A
C569        F576   1.358       .  S
C570        C571   1.406       .  A
C570        F575   1.358       .  S
C571        C572   1.415       .  A
C572        F573   1.358       .  S
C577        C578   1.405       .  A
C577        C582   1.400       .  A
C577        F584   1.358       .  S
C578        C579   1.406       .  A
C579        C580   1.409       .  A
C579        F586   1.357       .  S
C580        C581   1.413       .  A
C580        F585   1.357       .  S
C581        C582   1.414       .  A
C582        F583   1.358       .  S
C587        C588   1.416       .  A
C587        C592   1.401       .  A
C587        F594   1.357   1_556  S
C588        C589   1.411       .  A
C589        C590   1.399       .  A
C589        F596   1.358       .  S
C590        C591   1.405       .  A
C590        F595   1.358       .  S
C591        C592   1.400       .  A
C592        F593   1.358       .  S
C597        C598   1.397       .  A
C597        C602   1.399       .  A
C597        F604   1.358       .  S
C598        C599   1.409       .  A
C599        C600   1.398       .  A
C599        F606   1.359       .  S
C600        C601   1.406       .  A
C600        F605   1.358       .  S
C601        C602   1.418       .  A
C602        F603   1.358       .  S
C607        C608   1.404       .  A
C607        C612   1.403       .  A
C607        F614   1.358       .  S
C608        C609   1.417       .  A
C609        C610   1.398       .  A
C609        F616   1.359       .  S
C610        C611   1.406       .  A
C610        F615   1.358       .  S
C611        C612   1.417       .  A
C612        F613   1.357       .  S
C617        C618   1.419       .  A
C617        C622   1.396       .  A
C617        F624   1.359       .  S
C618        C619   1.404       .  A
C619        C620   1.403       .  A
C619        F626   1.357       .  S
C620        C621   1.413       .  A
C620        F625   1.357       .  S
C621        C622   1.400       .  A
C622        F623   1.358       .  S
C627        C628   1.407       .  A
C627        C632   1.402       .  A
C627        F634   1.358       .  S
C628        C629   1.401       .  A
C629        C630   1.389       .  A
C629        F636   1.358   1_655  S
C630        C631   1.404       .  A
C630        F635   1.358       .  S
C631        C632   1.405       .  A
C632        F633   1.358       .  S
C637        C638   1.397       .  A
C637        C642   1.399       .  A
C637        F644   1.357       .  S
C638        C639   1.407       .  A
C639        C640   1.394       .  A
C639        F646   1.359       .  S
C640        C641   1.402       .  A
C640        F645   1.357       .  S
C641        C642   1.415       .  A
C642        F643   1.358       .  S
C647        C648   1.408       .  A
C647        C652   1.402       .  A
C647        F654   1.357       .  S
C648        C649   1.419       .  A
C649        C650   1.402       .  A
C649        F656   1.357       .  S
C650        C651   1.402       .  A
C650        F655   1.358       .  S
C651        C652   1.411       .  A
C652        F653   1.358       .  S
C657        C658   1.408       .  A
C657        C662   1.400       .  A
C657        F664   1.358       .  S
C658        C659   1.401       .  A
C659        C660   1.403       .  A
C659        F666   1.358       .  S
C660        C661   1.418       .  A
C660        F665   1.358       .  S
C661        C662   1.407       .  A
C662        F663   1.357       .  S
C667        C668   1.410       .  A
C667        C672   1.393       .  A
C667        F674   1.357       .  S
C668        C669   1.415       .  A
C669        C670   1.399       .  A
C669        F676   1.358       .  S
C670        C671   1.399       .  A
C670        F675   1.358       .  S
C671        C672   1.400       .  A
C672        F673   1.358       .  S
C677        C678   1.414       .  A
C677        C682   1.410       .  A
C677        F684   1.357       .  S
C678        C679   1.414       .  A
C679        C680   1.410       .  A
C679        F686   1.358       .  S
C680        C681   1.410       .  A
C680        F685   1.358       .  S
C681        C682   1.410       .  A
C682        F683   1.358       .  S
C687        C688   1.412       .  A
C687        C692   1.411       .  A
C687        F694   1.358       .  S
C688        C689   1.415       .  A
C689        C690   1.406       .  A
C689        F696   1.357       .  S
C690        C691   1.410       .  A
C690        F695   1.357       .  S
C691        C692   1.415       .  A
C692        F693   1.358       .  S
C697        C698   1.413       .  A
C697        C702   1.408       .  A
C697        F704   1.358       .  S
C698        C699   1.415       .  A
C699        C700   1.408       .  A
C699        F706   1.357       .  S
C700        C701   1.405       .  A
C700        F705   1.357       .  S
C701        C702   1.409       .  A
C702        F703   1.358       .  S
