geometry optimzed in LAMMPS
_audit_creation_date              2020-11-30 
_audit_creation_method            'lammps2cif' 
_symmetry_space_group_name_H-M    'P1' 
_symmetry_Int_Tables_number       1 
_symmetry_cell_setting            triclinic 
loop_ 
_symmetry_equiv_pos_as_xyz 
  x,y,z 
_cell_length_a                    30.7563241 
_cell_length_b                    30.726885653533387 
_cell_length_c                    46.05393142991049 
_cell_angle_alpha                 90.04759475334059 
_cell_angle_beta                  90.09983450573523 
_cell_angle_gamma                 120.01055584937608 
loop_ 
_atom_site_label 
_atom_site_type_symbol 
_atom_site_fract_x 
_atom_site_fract_y 
_atom_site_fract_z 
_atom_site_charge 
O1          O  0.00698620  0.96917164  0.37969212    -0.72200
O2          O  0.00509157  0.97640850  0.29292418    -0.73200
O3          O  0.07136930  0.03765981  0.33684881    -0.61800
O4          O  0.94042380  0.90771068  0.33522860    -0.70200
O5          O  0.89870901  0.94916425  0.33685364    -0.69700
O6          O  0.02996249  0.07940524  0.34033899    -0.61000
O7          O  0.96436387  0.01882425  0.29499467    -0.73500
O8          O  0.96472091  0.00995496  0.38208204    -0.72300
Cu9        Cu  0.00730503  0.97123510  0.33607160     1.04600
Cu10       Cu  0.96294805  0.01577660  0.33867430     1.04300
C11         C  0.98627857  0.98872928  0.39474876     0.94000
C12         C  0.98501340  0.99893701  0.28016177     0.93200
C13         C  0.07129262  0.07907059  0.33893082     0.85300
C14         C  0.89884862  0.90768651  0.33554136     0.91600
O15         O  0.08789846  0.54601563  0.33207684    -0.72200
O16         O  0.96030479  0.41134230  0.33145852    -0.73200
O17         O  0.02404237  0.47792067  0.28834926    -0.61800
O18         O  0.02376776  0.47854084  0.37522159    -0.70200
O19         O  0.97828070  0.51601237  0.37552096    -0.69700
O20         O  0.98175430  0.51908255  0.28824987    -0.61000
O21         O  0.91662960  0.45071497  0.33060209    -0.73500
O22         O  0.04304151  0.58421764  0.33311336    -0.72300
Cu23       Cu  0.02563778  0.47717469  0.33180244     1.04600
Cu24       Cu  0.97837266  0.51880644  0.33185758     1.04300
C25         C  0.08564661  0.58647496  0.33294517     0.94000
C26         C  0.91802663  0.40981950  0.33058471     0.93200
C27         C  0.00283060  0.49836929  0.27463996     0.85300
C28         C  0.00087606  0.49696041  0.38926627     0.91600
O29         O  0.40832085  0.96353796  0.32908658    -0.72200
O30         O  0.54380181  0.08943724  0.32933854    -0.73200
O31         O  0.47724792  0.02523687  0.28550844    -0.61800
O32         O  0.47541821  0.02853822  0.37252476    -0.70200
O33         O  0.51490718  0.98484661  0.37428725    -0.69700
O34         O  0.51066497  0.97581642  0.28708267    -0.61000
O35         O  0.58084604  0.04327825  0.32870120    -0.73500
O36         O  0.44596664  0.91820443  0.33285608    -0.72300
Cu37       Cu  0.47486563  0.02826355  0.32899672     1.04600
Cu38       Cu  0.51439938  0.97893232  0.33074086     1.04300
C39         C  0.40592397  0.92095429  0.33160941     0.94000
C40         C  0.58363690  0.08618980  0.32906169     0.93200
C41         C  0.49364175  0.99952947  0.27256538     0.85300
C42         C  0.49535193  0.00774105  0.38720995     0.91600
O43         O  0.43974378  0.40537618  0.33765806    -0.72200
O44         O  0.57308128  0.53341965  0.33310487    -0.73200
O45         O  0.50944364  0.47232704  0.37888779    -0.61800
O46         O  0.50331549  0.46571732  0.29208071    -0.70200
O47         O  0.46392246  0.50937224  0.29104382    -0.69700
O48         O  0.47061875  0.51678733  0.37832152    -0.61000
O49         O  0.53299748  0.57664128  0.33275884    -0.73500
O50         O  0.40044712  0.44916854  0.33705190    -0.72300
Cu51       Cu  0.50769343  0.46761992  0.33540184     1.04600
Cu52       Cu  0.46556521  0.51444355  0.33474332     1.04300
C53         C  0.39895503  0.40692696  0.33826798     0.94000
C54         C  0.57390084  0.57543114  0.33244559     0.93200
C55         C  0.49121339  0.49591197  0.39233973     0.85300
C56         C  0.48325139  0.48667336  0.27767136     0.90400
O57         O  0.01408263  0.03526859  0.95997223    -0.72200
O58         O  0.01382550  0.03958421  0.04691535    -0.73200
O59         O  0.07614168  0.03199200  0.00446210    -0.61800
O60         O  0.95065651  0.04224832  0.00227222    -0.70200
O61         O  0.90543740  0.95914053  0.00337190    -0.69700
O62         O  0.03034839  0.94891389  0.00593189    -0.61000
O63         O  0.96747061  0.95650837  0.04815252    -0.73500
O64         O  0.96930915  0.95202096  0.96117134    -0.72300
Cu65       Cu  0.01523527  0.04018511  0.00336709     1.04600
Cu66       Cu  0.96642435  0.95129273  0.00469595     1.04300
C67         C  0.99248639  0.99297877  0.94683757     0.94000
C68         C  0.99104093  0.99873701  0.06134043     0.93200
C69         C  0.07318829  0.98897024  0.00543304     0.85300
C70         C  0.90791180  0.00191997  0.00247652     0.91600
O71         O  0.98470329  0.45630154  0.04200886    -0.72200
O72         O  0.99022721  0.45635197  0.95469764    -0.73200
O73         O  0.05292309  0.45831232  0.00012529    -0.61800
O74         O  0.92043955  0.45306485  0.99657276    -0.70200
O75         O  0.95953261  0.53631978  0.99608705    -0.69700
O76         O  0.09314137  0.54161665  0.00035499    -0.61000
O77         O  0.02972760  0.53961755  0.95530489    -0.73500
O78         O  0.02287237  0.53962164  0.04194988    -0.72300
Cu79       Cu  0.98565623  0.45312788  0.99838135     1.04600
Cu80       Cu  0.02766323  0.54220818  0.99848257     1.04300
C81         C  0.00291314  0.49803259  0.05571635     0.94000
C82         C  0.01148063  0.49833646  0.94123152     0.93200
C83         C  0.09392417  0.50035774  0.00043025     0.85300
C84         C  0.91887359  0.49378178  0.99560567     0.91600
O85         O  0.53546585  0.95447613  0.99488033    -0.72200
O86         O  0.40262119  0.94924224  0.99716011    -0.73200
O87         O  0.46810713  0.95275291  0.95232026    -0.61800
O88         O  0.47073228  0.95172522  0.03966578    -0.70200
O89         O  0.50604481  0.03487252  0.03985954    -0.69700
O90         O  0.50919053  0.03597678  0.95293770    -0.61000
O91         O  0.44119671  0.03251165  0.99543521    -0.73500
O92         O  0.57456435  0.03761850  0.99713672    -0.72300
Cu93       Cu  0.46782645  0.94914278  0.99596736     1.04600
Cu94       Cu  0.50915727  0.03815450  0.99634764     1.04300
C95         C  0.57612442  0.99680411  0.99581914     0.94000
C96         C  0.40082788  0.98988234  0.99652566     0.93200
C97         C  0.48880268  0.99468876  0.93878002     0.85300
C98         C  0.48814509  0.99325280  0.05348271     0.91600
O99         O  0.48730014  0.45432342  0.04429572    -0.72200
O100        O  0.48593255  0.45920835  0.95725685    -0.73200
O101        O  0.55190208  0.45738576  0.99931427    -0.61800
O102        O  0.42102123  0.45604209  0.00207149    -0.70200
O103        O  0.46189718  0.53919373  0.00534529    -0.69700
O104        O  0.59342306  0.54059895  0.00071352    -0.61000
O105        O  0.52564911  0.54233452  0.95926638    -0.73500
O106        O  0.52988041  0.53749606  0.04645514    -0.72300
Cu107      Cu  0.48515287  0.45391849  0.00072084     1.04600
Cu108      Cu  0.52916162  0.54285357  0.00299821     1.04300
C109        C  0.50865310  0.49490045  0.05920371     0.94000
C110        C  0.50584068  0.50165589  0.94439041     0.93200
C111        C  0.59339944  0.49903897  0.99922760     0.85300
C112        C  0.42063725  0.49728788  0.00439178     0.91600
O113        O  0.96362043  0.96771170  0.71499284    -0.72200
O114        O  0.96068475  0.97388370  0.62825034    -0.73200
O115        O  0.95971814  0.90459145  0.66902045    -0.61800
O116        O  0.96406156  0.03683640  0.67447287    -0.70200
O117        O  0.04729600  0.07677509  0.67291379    -0.69700
O118        O  0.04281740  0.94430166  0.66860004    -0.61000
O119        O  0.04377889  0.01324409  0.62723580    -0.73500
O120        O  0.04670657  0.00793178  0.71446848    -0.72300
Cu121      Cu  0.95918001  0.96941854  0.67172396     1.04600
Cu122      Cu  0.04807630  0.01195812  0.67079671     1.04300
C123        C  0.00546951  0.98691887  0.72858846     0.94000
C124        C  0.00171775  0.99428913  0.61389930     0.93200
C125        C  0.00057658  0.90338242  0.66801783     0.85300
C126        C  0.00626614  0.07768282  0.67434642     0.91600
O127        O  0.96583258  0.40584112  0.66892192    -0.72200
O128        O  0.96159543  0.53390309  0.66465645    -0.73200
O129        O  0.96027442  0.46474122  0.62313671    -0.61800
O130        O  0.96718000  0.47536943  0.71024149    -0.70200
O131        O  0.05032457  0.51843919  0.70801486    -0.69700
O132        O  0.04331046  0.50755405  0.62151882    -0.61000
O133        O  0.04474721  0.57708961  0.66215615    -0.73500
O134        O  0.04889317  0.44896067  0.66713797    -0.72300
Cu135      Cu  0.96078761  0.46838601  0.66681258     1.04600
Cu136      Cu  0.04965784  0.51448675  0.66463523     1.04300
C137        C  0.00795838  0.40696824  0.66869579     0.94000
C138        C  0.00259193  0.57580183  0.66273306     0.93200
C139        C  0.00095182  0.48482576  0.60847375     0.85300
C140        C  0.00989736  0.49876053  0.72287303     0.91600
O141        O  0.47129965  0.00002457  0.70606999    -0.72200
O142        O  0.47378275  0.00595374  0.61950369    -0.73200
O143        O  0.46975572  0.93643994  0.66194135    -0.61800
O144        O  0.47592079  0.06975126  0.66434464    -0.70200
O145        O  0.55900733  0.10924867  0.66545589    -0.69700
O146        O  0.55306159  0.97583750  0.66160310    -0.61000
O147        O  0.55692149  0.04587370  0.61973853    -0.73500
O148        O  0.55428379  0.03820802  0.70731174    -0.72300
Cu149      Cu  0.46990457  0.00180149  0.66286881     1.04600
Cu150      Cu  0.55879740  0.04371880  0.66353230     1.04300
C151        C  0.51207173  0.01713775  0.72052779     0.94000
C152        C  0.51540782  0.02701189  0.60577169     0.93200
C153        C  0.51064588  0.93519939  0.66187090     0.85300
C154        C  0.51816942  0.11060895  0.66541048     0.91600
O155        O  0.55267771  0.54119791  0.62471489    -0.72200
O156        O  0.54863067  0.54195242  0.71177708    -0.73200
O157        O  0.55126830  0.47712171  0.66925875    -0.61800
O158        O  0.54964802  0.60674511  0.66727724    -0.70200
O159        O  0.46644115  0.56464558  0.66586204    -0.69700
O160        O  0.46801589  0.43485307  0.66779898    -0.61000
O161        O  0.46532609  0.50060109  0.71087628    -0.73500
O162        O  0.46938784  0.49970850  0.62356043    -0.72300
Cu163      Cu  0.55341557  0.54329376  0.66833375     1.04600
Cu164      Cu  0.46435790  0.49844370  0.66702349     1.04300
C165        C  0.51156967  0.52026755  0.61037398     0.94000
C166        C  0.50661577  0.52115700  0.72510635     0.93200
C167        C  0.50986158  0.43544176  0.66856610     0.85300
C168        C  0.50788335  0.60628533  0.66592159     0.91600
C169        C  0.47652096  0.80157111  0.68041888    -0.13600
C170        C  0.50987048  0.79524535  0.66264508     0.16800
C171        C  0.54240374  0.83448663  0.64409134     0.03100
C172        C  0.54252578  0.88007436  0.64440984    -0.12100
C173        C  0.50926852  0.88658224  0.66221825    -0.03200
C174        C  0.47574694  0.84673677  0.68024274     0.02300
C175        C  0.50984805  0.74722711  0.66355686     0.09200
N176        N  0.57338096  0.82751789  0.62370682     0.65500
H177        H  0.56773708  0.91008316  0.63002250     0.18400
N178        N  0.44228873  0.85233094  0.69935110     0.76000
H179        H  0.45129551  0.77139531  0.69470558     0.09900
C180        C  0.54903135  0.74356179  0.67700826     0.03600
C181        C  0.54808131  0.69754931  0.67711092    -0.05100
C182        C  0.50782177  0.65441383  0.66465159    -0.23500
C183        C  0.46823497  0.65820235  0.65151344     0.12900
C184        C  0.46971428  0.70446446  0.65101963    -0.12600
N185        N  0.58854315  0.78553008  0.69197233     0.64600
H186        H  0.57834627  0.69525879  0.68779147     0.12400
N187        N  0.42701954  0.61590795  0.63782683     0.61200
H188        H  0.43943061  0.70712859  0.64063260     0.08600
O189        O  0.45692584  0.87006628  0.72449703    -0.40300
O190        O  0.39622630  0.83168068  0.69308404    -0.39400
O191        O  0.55479415  0.80621906  0.59977193    -0.39400
O192        O  0.62044556  0.85146877  0.62685000    -0.37100
O193        O  0.38571108  0.59208639  0.65101858    -0.38000
O194        O  0.42891038  0.60852410  0.61101773    -0.34200
O195        O  0.58195537  0.79401970  0.71793931    -0.35600
O196        O  0.63238560  0.80705231  0.68166801    -0.39900
C197        C  0.56024980  0.25045749  0.66270528    -0.13600
C198        C  0.51595822  0.24988310  0.67084740     0.16800
C199        C  0.47280440  0.20327428  0.67697967     0.03100
C200        C  0.47458173  0.15883602  0.67479746    -0.12100
C201        C  0.51891719  0.15927625  0.66698989    -0.03200
C202        C  0.56230872  0.20596041  0.66101645     0.02300
C203        C  0.51437123  0.29755910  0.67098595     0.09200
N204        N  0.42700784  0.20039331  0.68604582     0.65500
H205        H  0.44087868  0.12362783  0.67982141     0.18400
N206        N  0.60825741  0.20889121  0.65226955     0.76000
H207        H  0.59333276  0.28565477  0.65689027     0.09900
C208        C  0.55143258  0.34123866  0.68523065     0.03600
C209        C  0.54961783  0.38581984  0.68378662    -0.05100
C210        C  0.51080203  0.38778981  0.66888613    -0.23500
C211        C  0.47381687  0.34425453  0.65460523     0.12900
C212        C  0.47629532  0.30002913  0.65546572    -0.12600
N213        N  0.59027021  0.34060275  0.70199125     0.64600
H214        H  0.57815631  0.41886589  0.69509343     0.12400
N215        N  0.43484876  0.34493362  0.63801473     0.61200
H216        H  0.44871393  0.26759764  0.64332115     0.08600
O217        O  0.64379191  0.22307109  0.67028333    -0.40300
O218        O  0.61646023  0.20629785  0.62566480    -0.39400
O219        O  0.38867799  0.17896319  0.66993990    -0.39400
O220        O  0.42233221  0.21045550  0.71201910    -0.37100
O221        O  0.44344013  0.36121207  0.61230001    -0.38000
O222        O  0.39033343  0.32233074  0.64733094    -0.34200
O223        O  0.63529188  0.36584776  0.69369703    -0.35600
O224        O  0.58090374  0.32298096  0.72740140    -0.39900
C225        C  0.95656618  0.76393252  0.65923407    -0.13600
C226        C  0.00036776  0.76287431  0.66644030     0.16800
C227        C  0.04432014  0.80839443  0.67332678     0.03100
C228        C  0.04360055  0.85351727  0.67316514    -0.12100
C229        C  0.99949607  0.85458330  0.66668372    -0.03200
C230        C  0.95553645  0.80896229  0.65955185     0.02300
C231        C  0.00019809  0.71445516  0.66539443     0.09200
N232        N  0.08963259  0.80927135  0.68144451     0.65500
H233        H  0.07776263  0.88788804  0.67891757     0.18400
N234        N  0.90981774  0.80763859  0.65196570     0.76000
H235        H  0.92288663  0.72952048  0.65293119     0.09900
C236        C  0.96343059  0.67136687  0.68005746     0.03600
C237        C  0.96386199  0.62615063  0.67802291    -0.05100
C238        C  0.00113485  0.62310506  0.66213806    -0.23500
C239        C  0.03746311  0.66592640  0.64714525     0.12900
C240        C  0.03634518  0.71082633  0.64863618    -0.12600
N241        N  0.92685977  0.67350386  0.69818493     0.64600
H242        H  0.93599706  0.59371123  0.68995292     0.12400
N243        N  0.07471605  0.66399681  0.62957184     0.61200
H244        H  0.06366167  0.74298454  0.63630713     0.08600
O245        O  0.89982896  0.80980729  0.62560276    -0.40300
O246        O  0.87586996  0.79511590  0.67080013    -0.39400
O247        O  0.12751978  0.83034826  0.66509976    -0.39400
O248        O  0.09450811  0.79725675  0.70692909    -0.37100
O249        O  0.06425855  0.64811469  0.60378812    -0.38000
O250        O  0.11974338  0.68540017  0.63812599    -0.34200
O251        O  0.88111989  0.64970742  0.69098584    -0.35600
O252        O  0.93891723  0.69130744  0.72351377    -0.39900
C253        C  0.97219402  0.17891091  0.68754076    -0.13600
C254        C  0.00761893  0.21804056  0.67010942     0.16800
C255        C  0.04402951  0.21133260  0.65531893     0.03100
C256        C  0.04410534  0.16602853  0.65798892    -0.12100
C257        C  0.00766272  0.12639034  0.67462892    -0.03200
C258        C  0.97162645  0.13321162  0.68971874     0.02300
C259        C  0.00769417  0.26639679  0.66891657     0.09200
N260        N  0.07967552  0.24924532  0.63643326     0.65500
H261        H  0.07163710  0.16107527  0.64592291     0.18400
N262        N  0.93548162  0.09484857  0.70819007     0.76000
H263        H  0.94519153  0.18413490  0.69997830     0.09900
C264        C  0.96369993  0.26808487  0.66248541     0.03600
C265        C  0.96452549  0.31399581  0.66313632    -0.05100
C266        C  0.00880652  0.35910129  0.66962401    -0.23500
C267        C  0.05290054  0.35733328  0.67605159     0.12900
C268        C  0.05177223  0.31123269  0.67586031    -0.12600
N269        N  0.91829890  0.22373851  0.65427562     0.64600
H270        H  0.93032132  0.31434034  0.65774787     0.12400
N271        N  0.09882746  0.40163851  0.68355765     0.61200
H272        H  0.08554516  0.31040251  0.68175765     0.08600
O273        O  0.88991845  0.07095150  0.70064731    -0.40300
O274        O  0.94753465  0.09076941  0.73382826    -0.39400
O275        O  0.12577223  0.27138061  0.64281285    -0.39400
O276        O  0.06632875  0.25383624  0.61123176    -0.37100
O277        O  0.10705305  0.41634813  0.70961679    -0.38000
O278        O  0.13427192  0.42054331  0.66544095    -0.34200
O279        O  0.88058367  0.20656627  0.67077331    -0.35600
O280        O  0.91311838  0.20742058  0.62861402    -0.39900
C281        C  0.50098979  0.46824522  0.86408114    -0.13600
C282        C  0.50893525  0.51266373  0.85075855     0.16800
C283        C  0.51501630  0.55291413  0.86835846     0.03100
C284        C  0.51371317  0.54842071  0.89864753    -0.12100
C285        C  0.50613669  0.50413873  0.91212067    -0.03200
C286        C  0.49959022  0.46360531  0.89438911     0.02300
C287        C  0.50912223  0.51573792  0.81853107     0.09200
N288        N  0.52368363  0.59906964  0.85578873     0.65500
H289        H  0.51871729  0.58002994  0.91170392     0.18400
N290        N  0.49254999  0.41784801  0.90669335     0.76000
H291        H  0.49545660  0.43665164  0.85081034     0.09900
C292        C  0.54290647  0.50801938  0.80162401     0.03600
C293        C  0.54147233  0.51027328  0.77130918    -0.05100
C294        C  0.50644361  0.51954134  0.75720770    -0.23500
C295        C  0.47229855  0.52678630  0.77404184     0.12900
C296        C  0.47390670  0.52482978  0.80443053    -0.12600
N297        N  0.57945795  0.49867601  0.81492843     0.64600
H298        H  0.56783317  0.50436702  0.75865614     0.12400
N299        N  0.43729723  0.53828880  0.76068953     0.61200
H300        H  0.44722056  0.53015723  0.81711210     0.08600
O301        O  0.52998291  0.41208827  0.91060104    -0.40300
O302        O  0.44883202  0.38042360  0.90864812    -0.39400
O303        O  0.48939028  0.61022504  0.85635973    -0.39400
O304        O  0.56778565  0.63225873  0.84914531    -0.37100
O305        O  0.39233814  0.50395538  0.75711388    -0.38000
O306        O  0.44874077  0.58360274  0.75765422    -0.34200
O307        O  0.57510092  0.45572139  0.81276252    -0.35600
O308        O  0.62030028  0.53515540  0.82383772    -0.39900
C309        C  0.54707482  0.02566114  0.80080833    -0.13600
C310        C  0.49964353  0.99706653  0.81343635     0.16800
C311        C  0.45672419  0.97487416  0.79563981     0.03100
C312        C  0.46182801  0.98157235  0.76556225    -0.12100
C313        C  0.50927521  0.01104955  0.75263585    -0.03200
C314        C  0.55231724  0.03309486  0.77072609     0.02300
C315        C  0.49544385  0.99504711  0.84536379     0.09200
N316        N  0.40757363  0.94784697  0.80792669     0.65500
H317        H  0.42807314  0.96416753  0.75234628     0.18400
N318        N  0.60136728  0.06480052  0.75920549     0.76000
H319        H  0.58020515  0.04356983  0.81454468     0.09900
C320        C  0.48575081  0.95197879  0.86118429     0.03600
C321        C  0.48242255  0.95216439  0.89151420    -0.05100
C322        C  0.48991569  0.99528266  0.90655501    -0.23500
C323        C  0.50000229  0.03853898  0.89041233     0.12900
C324        C  0.50227508  0.03780486  0.86012577    -0.12600
N325        N  0.48211839  0.90897341  0.84690363     0.64600
H326        H  0.47566071  0.91887715  0.90338460     0.12400
N327        N  0.50810752  0.08361392  0.90428409     0.61200
H328        H  0.50985770  0.07112833  0.84798150     0.08600
O329        O  0.63213356  0.04903528  0.75795718    -0.40300
O330        O  0.61679828  0.11096192  0.75556996    -0.39400
O331        O  0.38522816  0.97129094  0.81497600    -0.39400
O332        O  0.38300001  0.90054000  0.80612813    -0.37100
O333        O  0.55239112  0.11937703  0.90790566    -0.38000
O334        O  0.47190976  0.09161061  0.90709512    -0.34200
O335        O  0.52161773  0.90737488  0.84188471    -0.35600
O336        O  0.44007045  0.86922554  0.84496938    -0.39900
C337        C  0.73201709  0.53740010  0.00170673    -0.13600
C338        C  0.73084418  0.49442575  0.99029685     0.16800
C339        C  0.68411876  0.45300636  0.98217783     0.03100
C340        C  0.64008832  0.45530524  0.98555844    -0.12100
C341        C  0.64125986  0.49847804  0.99671278    -0.03200
C342        C  0.68806009  0.53995992  0.00478103     0.02300
C343        C  0.77816570  0.49234384  0.98929227     0.09200
N344        N  0.68076380  0.40867571  0.96991029     0.65500
H345        H  0.60472145  0.42315488  0.97887681     0.18400
N346        N  0.69152391  0.58408450  0.01738521     0.76000
H347        H  0.76727749  0.56887315  0.00911709     0.09900
C348        C  0.82248124  0.53165742  0.97700391     0.03600
C349        C  0.86778260  0.53154717  0.97959773    -0.05100
C350        C  0.86990693  0.49200863  0.99348166    -0.23500
C351        C  0.82521731  0.45173249  0.00486703     0.12900
C352        C  0.78024254  0.45270563  0.00310938    -0.12600
N353        N  0.82183523  0.57134040  0.96118973     0.64600
H354        H  0.90143800  0.56224384  0.97009185     0.12400
N355        N  0.82517318  0.41065857  0.01942192     0.61200
H356        H  0.74697437  0.42285563  0.01342054     0.08600
O357        O  0.70740351  0.62340155  0.00231470    -0.40300
O358        O  0.68802268  0.58659991  0.04455009    -0.39400
O359        O  0.65960591  0.36809088  0.98403753    -0.39400
O360        O  0.68937057  0.40767380  0.94321513    -0.37100
O361        O  0.83078684  0.41217485  0.04661982    -0.38000
O362        O  0.81028471  0.36967859  0.00610190    -0.34200
O363        O  0.84542181  0.61569632  0.97089858    -0.35600
O364        O  0.80608481  0.56377000  0.93532861    -0.39900
C365        C  0.31933468  0.53087550  0.01971693    -0.13600
C366        C  0.27922930  0.49451075  0.00321339     0.16800
C367        C  0.28549333  0.45846147  0.98765203     0.03100
C368        C  0.33133442  0.45911950  0.98915318    -0.12100
C369        C  0.37192244  0.49616039  0.00518282    -0.03200
C370        C  0.36542966  0.53205512  0.02081441     0.02300
C371        C  0.23149312  0.49538430  0.00242036     0.09200
N372        N  0.24695355  0.42312824  0.96878624     0.65500
H373        H  0.33592073  0.43176417  0.97661701     0.18400
N374        N  0.40457344  0.56874945  0.03875372     0.76000
H375        H  0.31467909  0.55843658  0.03198991     0.09900
C376        C  0.18697281  0.45633186  0.01452229     0.03600
C377        C  0.14280837  0.45884277  0.01348545    -0.05100
C378        C  0.14204448  0.50018791  0.00102729    -0.23500
C379        C  0.18675169  0.53934705  0.98896498     0.12900
C380        C  0.23090762  0.53663199  0.98981787    -0.12600
N381        N  0.18651532  0.41512402  0.02919385     0.64600
H382        H  0.10905292  0.42864299  0.02318479     0.12400
N383        N  0.18749969  0.58090527  0.97460597     0.61200
H384        H  0.26493469  0.56671158  0.98028015     0.08600
O385        O  0.40772870  0.55840499  0.06490817    -0.40300
O386        O  0.42922239  0.61376417  0.03031623    -0.39400
O387        O  0.23791256  0.43831766  0.94532036    -0.39400
O388        O  0.22995048  0.37667055  0.97239022    -0.37100
O389        O  0.20572033  0.62270941  0.98745803    -0.38000
O390        O  0.17929388  0.57857190  0.94763402    -0.34200
O391        O  0.20360042  0.42131299  0.05472410    -0.35600
O392        O  0.15931351  0.37107481  0.01959032    -0.39900
C393        C  0.97940901  0.50572823  0.80210118    -0.13600
C394        C  0.02092742  0.50771201  0.81600096     0.16800
C395        C  0.05889287  0.50724754  0.79920386     0.03100
C396        C  0.05492417  0.50512513  0.76890980    -0.12100
C397        C  0.01306359  0.50252027  0.75489996    -0.03200
C398        C  0.97502505  0.50293288  0.77183562     0.02300
C399        C  0.02217814  0.50716985  0.84806904     0.09200
N400        N  0.10164531  0.50896785  0.81262689     0.65500
H401        H  0.08443722  0.50459041  0.75628496     0.18400
N402        N  0.93212401  0.50129523  0.75868399     0.76000
H403        H  0.94968836  0.50550056  0.81491850     0.09900
C404        C  0.02293817  0.54617858  0.86450249     0.03600
C405        C  0.01947169  0.54242580  0.89473240    -0.05100
C406        C  0.01495737  0.50007744  0.90915975    -0.23500
C407        C  0.01468802  0.46118215  0.89262271     0.12900
C408        C  0.01832921  0.46510398  0.86232901    -0.12600
N409        N  0.02761667  0.59000315  0.85075962     0.64600
H410        H  0.01991351  0.57284712  0.90697623     0.12400
N411        N  0.01163040  0.41795037  0.90619141     0.61200
H412        H  0.01713584  0.43458892  0.84978735     0.08600
O413        O  0.93300685  0.54179902  0.75270860    -0.40300
O414        O  0.89089996  0.46042903  0.75811222    -0.39400
O415        O  0.10465171  0.46954040  0.81398908    -0.39400
O416        O  0.13987617  0.55092664  0.81816288    -0.37100
O417        O  0.96975275  0.37795583  0.90784719    -0.38000
O418        O  0.05136146  0.41688744  0.91146473    -0.34200
O419        O  0.99041547  0.59678739  0.84998492    -0.35600
O420        O  0.07060343  0.62568143  0.84424211    -0.39900
C421        C  0.67779655  0.96171568  0.98580813    -0.13600
C422        C  0.71894818  0.00195319  0.99968307     0.16800
C423        C  0.71335999  0.04160909  0.01097831     0.03100
C424        C  0.66698531  0.03973728  0.00888678    -0.12100
C425        C  0.62528426  0.99858905  0.99595432    -0.03200
C426        C  0.63125444  0.95947531  0.98401930     0.02300
C427        C  0.76764847  0.00259149  0.00129510     0.09200
N428        N  0.75393149  0.08324486  0.02552729     0.65500
H429        H  0.66327147  0.07013993  0.01825472     0.18400
N430        N  0.59102696  0.91807748  0.96909341     0.76000
H431        H  0.68194359  0.93192612  0.97592235     0.09900
C432        C  0.77068909  0.96162718  0.01277197     0.03600
C433        C  0.81661282  0.96249294  0.01291499    -0.05100
C434        C  0.86054654  0.00386329  0.00210211    -0.23500
C435        C  0.85756466  0.04505425  0.99072896     0.12900
C436        C  0.81130390  0.04373459  0.99013679    -0.12600
N437        N  0.72766888  0.91925384  0.02498065     0.64600
H438        H  0.81790135  0.93056735  0.02198588     0.12400
N439        N  0.90046742  0.08759472  0.97858898     0.61200
H440        H  0.80939341  0.07492881  0.98046664     0.08600
O441        O  0.56598172  0.87650522  0.98191479    -0.40300
O442        O  0.58677112  0.92028195  0.94195388    -0.39400
O443        O  0.77523933  0.12593992  0.01364243    -0.39400
O444        O  0.76205448  0.07948434  0.05201353    -0.37100
O445        O  0.92861531  0.12411130  0.99482234    -0.38000
O446        O  0.90318280  0.09370066  0.95143678    -0.34200
O447        O  0.70680714  0.87801421  0.01139783    -0.35600
O448        O  0.71720520  0.92016486  0.05136956    -0.39900
C449        C  0.16643373  0.94182763  0.99915298    -0.13600
C450        C  0.21110962  0.98460306  0.00784778     0.16800
C451        C  0.20983413  0.02800506  0.01633135     0.03100
C452        C  0.16462723  0.02842966  0.01543490    -0.12100
C453        C  0.11989650  0.98604901  0.00626149    -0.03200
C454        C  0.12103181  0.94214952  0.99818246     0.02300
C455        C  0.25945149  0.98521115  0.00521444     0.09200
N456        N  0.25423018  0.07187824  0.02615028     0.65500
H457        H  0.16460620  0.06226887  0.02217424     0.18400
N458        N  0.07731748  0.89874437  0.98721965     0.76000
H459        H  0.16719154  0.90862756  0.99183689     0.09900
C460        C  0.26836349  0.95009492  0.01980212     0.03600
C461        C  0.31418939  0.95139655  0.01609306    -0.05100
C462        C  0.35170473  0.98744809  0.99810924    -0.23500
C463        C  0.34221231  0.02166428  0.98292796     0.12900
C464        C  0.29640321  0.02027343  0.98658927    -0.12600
N465        N  0.23197959  0.91411051  0.03920794     0.64600
H466        H  0.32104407  0.92496901  0.02804528     0.12400
N467        N  0.37727658  0.05568725  0.96225788     0.61200
H468        H  0.28916985  0.04611484  0.97427925     0.08600
O469        O  0.05686985  0.85882990  0.00196871    -0.40300
O470        O  0.06464361  0.89764648  0.96103143    -0.39400
O471        O  0.27414088  0.11078456  0.01053031    -0.39400
O472        O  0.26839337  0.07446763  0.05213747    -0.37100
O473        O  0.40141175  0.10214432  0.96777134    -0.38000
O474        O  0.37670371  0.04064955  0.93668516    -0.34200
O475        O  0.20825322  0.86827462  0.03214368    -0.35600
O476        O  0.23021958  0.92662436  0.06509022    -0.39900
C477        C  0.99669301  0.02425806  0.86678712    -0.13600
C478        C  0.99997349  0.98463064  0.85406189     0.16800
C479        C  0.00188277  0.94844310  0.87185117     0.03100
C480        C  0.99870775  0.95143324  0.90203265    -0.12100
C481        C  0.99530219  0.99110122  0.91489685    -0.03200
C482        C  0.99511794  0.02825294  0.89695559     0.02300
C483        C  0.00079728  0.98173859  0.82212331     0.09200
N484        N  0.00694318  0.90853559  0.85953429     0.65500
H485        H  0.99977891  0.92301869  0.91552079     0.18400
N486        N  0.99154745  0.06925911  0.90889416     0.76000
H487        H  0.99559361  0.05249050  0.85313131     0.09900
C488        C  0.95760752  0.96957497  0.80573046     0.03600
C489        C  0.96000304  0.97090639  0.77545536    -0.05100
C490        C  0.00528002  0.98503208  0.76084516    -0.23500
C491        C  0.04872537  0.99721989  0.77750016     0.12900
C492        C  0.04591492  0.99502898  0.80788988    -0.12600
N493        N  0.91110057  0.95623442  0.81964244     0.64600
H494        H  0.92610595  0.96156712  0.76336503     0.12400
N495        N  0.09608997  0.01264587  0.76409495     0.61200
H496        H  0.07953572  0.00516499  0.82050295     0.08600
O497        O  0.03117885  0.10934292  0.91553309    -0.40300
O498        O  0.95094298  0.06971232  0.90632859    -0.39400
O499        O  0.04987238  0.91287134  0.85775117    -0.39400
O500        O  0.96837628  0.86627915  0.85516351    -0.37100
O501        O  0.12613405  0.05882063  0.75996637    -0.38000
O502        O  0.11176964  0.98187462  0.76199566    -0.34200
O503        O  0.89746423  0.98854477  0.82222417    -0.35600
O504        O  0.88034466  0.91069178  0.82502140    -0.39900
C505        C  0.54766783  0.51549759  0.53195512    -0.13600
C506        C  0.50948402  0.51847662  0.51701675     0.16800
C507        C  0.47283375  0.52311367  0.53288217     0.03100
C508        C  0.47478473  0.52438131  0.56323787    -0.12100
C509        C  0.51234972  0.52043141  0.57828626    -0.03200
C510        C  0.54934372  0.51628839  0.56237788     0.02300
C511        C  0.50675770  0.51385481  0.48499049     0.09200
N512        N  0.43182883  0.52369223  0.51856406     0.65500
H513        H  0.44608100  0.52754599  0.57516242     0.18400
N514        N  0.58675145  0.50949336  0.57674146     0.76000
H515        H  0.57561195  0.51126055  0.51989606     0.09900
C516        C  0.51334526  0.55384706  0.46707117     0.03600
C517        C  0.50674181  0.54667482  0.43701659    -0.05100
C518        C  0.49534366  0.50066102  0.42427095    -0.23500
C519        C  0.48994227  0.46100501  0.44219050     0.12900
C520        C  0.49542865  0.46784942  0.47232102    -0.12600
N521        N  0.52932370  0.60258791  0.47891300     0.64600
H522        H  0.51237672  0.57791199  0.42342793     0.12400
N523        N  0.47657025  0.41292630  0.43029091     0.61200
H524        H  0.48993784  0.43675861  0.48599531     0.08600
O525        O  0.63211586  0.54398667  0.57602555    -0.40300
O526        O  0.57581341  0.46641813  0.58573884    -0.39400
O527        O  0.39760947  0.48385406  0.50711535    -0.39400
O528        O  0.42473616  0.56035808  0.52233903    -0.37100
O529        O  0.50956483  0.40019991  0.42790464    -0.38000
O530        O  0.43081692  0.38008938  0.42761164    -0.34200
O531        O  0.57454936  0.62991497  0.48653786    -0.35600
O532        O  0.50188764  0.62204421  0.47598311    -0.39900
C533        C  0.46811304  0.50763955  0.19729708    -0.13600
C534        C  0.49153520  0.48357628  0.18425129     0.16800
C535        C  0.51086778  0.45974393  0.20171403     0.03100
C536        C  0.50648026  0.46015918  0.23189980    -0.12100
C537        C  0.48374916  0.48491737  0.24536888    -0.03200
C538        C  0.46416414  0.50870884  0.22757906     0.02300
C539        C  0.49701317  0.48527232  0.15239546     0.09200
N540        N  0.53721327  0.43706461  0.18916537     0.65500
H541        H  0.52228422  0.44199121  0.24482277     0.18400
N542        N  0.44125798  0.53512615  0.23972699     0.76000
H543        H  0.45340867  0.52629484  0.18387088     0.09900
C544        C  0.46409058  0.44445615  0.13484904     0.03600
C545        C  0.46933505  0.44804813  0.10465214    -0.05100
C546        C  0.50696383  0.49200629  0.09138065    -0.23500
C547        C  0.54065315  0.53252933  0.10921347     0.12900
C548        C  0.53521521  0.52880966  0.13943852    -0.12600
N549        N  0.42413717  0.39983445  0.14736733     0.64600
H550        H  0.44276518  0.41646689  0.09146967     0.12400
N551        N  0.58138842  0.57704739  0.09712739     0.61200
H552        H  0.56113057  0.56022728  0.15297437     0.08600
O553        O  0.39409229  0.51328654  0.24195519    -0.40300
O554        O  0.46681716  0.58222143  0.24272242    -0.39400
O555        O  0.58365912  0.46371288  0.18432497    -0.39400
O556        O  0.51695953  0.38981693  0.18864402    -0.37100
O557        O  0.57788710  0.61609097  0.09476430    -0.38000
O558        O  0.62378857  0.58036971  0.09463283    -0.34200
O559        O  0.38120293  0.39532181  0.14970127    -0.35600
O560        O  0.42892736  0.36163638  0.15036699    -0.39900
C561        C  0.50270491  0.98199516  0.46738467    -0.13600
C562        C  0.50370100  0.02380731  0.48027413     0.16800
C563        C  0.50097296  0.05970544  0.46254558     0.03100
C564        C  0.49701623  0.05305253  0.43237138    -0.12100
C565        C  0.49672721  0.01153477  0.41931761    -0.03200
C566        C  0.49925191  0.97553525  0.43721558     0.02300
C567        C  0.50773298  0.02884068  0.51226795     0.09200
N568        N  0.50497224  0.10439176  0.47468047     0.65500
H569        H  0.49593421  0.08156260  0.41900703     0.18400
N570        N  0.49675928  0.93143720  0.42523444     0.76000
H571        H  0.50429247  0.95393075  0.48092475     0.09900
C572        C  0.46699005  0.02216244  0.52941932     0.03600
C573        C  0.47093690  0.02303502  0.55972838    -0.05100
C574        C  0.51464144  0.02953013  0.57355220    -0.23500
C575        C  0.55574763  0.03711076  0.55620318     0.12900
C576        C  0.55195107  0.03687550  0.52586968    -0.12600
N577        N  0.42031834  0.01126191  0.51645008     0.64600
H578        H  0.43886591  0.01719132  0.57252058     0.12400
N579        N  0.60046443  0.04213446  0.56887066     0.61200
H580        H  0.58329955  0.04153028  0.51277203     0.08600
O581        O  0.45458912  0.89227271  0.42185101    -0.40300
O582        O  0.53627069  0.92877901  0.42318239    -0.39400
O583        O  0.54788736  0.14110835  0.48036740    -0.39400
O584        O  0.46787404  0.11128541  0.47335591    -0.37100
O585        O  0.60266244  0.00323884  0.57494285    -0.38000
O586        O  0.64013561  0.08444265  0.56900494    -0.34200
O587        O  0.39158978  0.96792627  0.50631064    -0.35600
O588        O  0.40352906  0.04079198  0.52044367    -0.39900
C589        C  0.47832914  0.95352932  0.19468944    -0.13600
C590        C  0.49697457  0.99871061  0.17913511     0.16800
C591        C  0.51378835  0.04402111  0.19477636     0.03100
C592        C  0.51127220  0.04320810  0.22514448    -0.12100
C593        C  0.49376881  0.99821674  0.24054361    -0.03200
C594        C  0.47727998  0.95302146  0.22509458     0.02300
C595        C  0.49554881  0.99744972  0.14675737     0.09200
N596        N  0.53514209  0.09135631  0.18022357     0.65500
H597        H  0.52462328  0.07837093  0.23686222     0.18400
N598        N  0.45695408  0.90606072  0.23994498     0.76000
H599        H  0.46334784  0.91803330  0.18314000     0.09900
C600        C  0.51390860  0.97088588  0.13056966     0.03600
C601        C  0.50950800  0.96847029  0.10024385    -0.05100
C602        C  0.48849220  0.99337613  0.08547336    -0.23500
C603        C  0.46989256  0.01963487  0.10147202     0.12900
C604        C  0.47289001  0.02084372  0.13182132    -0.12600
N605        N  0.53897156  0.94795935  0.14447527     0.64600
H606        H  0.52443656  0.94857445  0.08804263     0.12400
N607        N  0.44587387  0.04331998  0.08722737     0.61200
H608        H  0.45653969  0.03957741  0.14383068     0.08600
O609        O  0.48329463  0.88544796  0.24310992    -0.40300
O610        O  0.41058945  0.88147179  0.24542855    -0.39400
O611        O  0.51283108  0.11640892  0.18091822    -0.39400
O612        O  0.58007737  0.11213679  0.17168518    -0.37100
O613        O  0.39933084  0.01845741  0.08212903    -0.38000
O614        O  0.46909276  0.09043401  0.08418188    -0.34200
O615        O  0.51954232  0.90077782  0.14391005    -0.35600
O616        O  0.58405098  0.97487426  0.15245215    -0.39900
C617        C  0.95668021  0.45745584  0.52956593    -0.13600
C618        C  0.00189348  0.48733267  0.51487345     0.16800
C619        C  0.04646236  0.51533780  0.53089004     0.03100
C620        C  0.04525823  0.51256680  0.56117734    -0.12100
C621        C  0.99995979  0.48329045  0.57620665    -0.03200
C622        C  0.95520879  0.45524455  0.55995931     0.02300
C623        C  0.00170564  0.48953304  0.48282903     0.09200
N624        N  0.09260765  0.54926769  0.51682760     0.65500
H625        H  0.08003546  0.53518890  0.57298917     0.18400
N626        N  0.90795991  0.42457917  0.57380450     0.76000
H627        H  0.92218843  0.43582617  0.51730414     0.09900
C628        C  0.02552732  0.46951711  0.46584062     0.03600
C629        C  0.02537950  0.47318285  0.43559234    -0.05100
C630        C  0.00084808  0.49563184  0.42157250    -0.23500
C631        C  0.97663871  0.51538402  0.43883747     0.12900
C632        C  0.97746279  0.51225079  0.46915512    -0.12600
N633        N  0.04779853  0.44311348  0.47890578     0.64600
H634        H  0.04373476  0.45712656  0.42302311     0.12400
N635        N  0.95073714  0.53840651  0.42613013     0.61200
H636        H  0.95899965  0.52771132  0.48217095     0.08600
O637        O  0.89260294  0.37853141  0.57785751    -0.40300
O638        O  0.87787735  0.44092924  0.57676756    -0.39400
O639        O  0.09889090  0.59050264  0.50727542    -0.39400
O640        O  0.13009576  0.54325121  0.51957826    -0.37100
O641        O  0.90402603  0.51246263  0.42180395    -0.38000
O642        O  0.97204215  0.58570189  0.42489536    -0.34200
O643        O  0.01986599  0.39896757  0.48806258    -0.35600
O644        O  0.09412429  0.45921383  0.47569939    -0.39900
C645        C  0.82109481  0.26927373  0.32915548    -0.13600
C646        C  0.77622636  0.27027936  0.32564373     0.16800
C647        C  0.77862090  0.31729161  0.32387019     0.03100
C648        C  0.82493864  0.36168565  0.32573204    -0.12100
C649        C  0.86999639  0.36097284  0.32918313    -0.03200
C650        C  0.86766856  0.31383554  0.33082081     0.02300
C651        C  0.72709008  0.22244599  0.32616998     0.09200
N652        N  0.73433329  0.32070921  0.31977808     0.65500
H653        H  0.82539108  0.39714047  0.32415359     0.18400
N654        N  0.91186356  0.31031688  0.33493168     0.76000
H655        H  0.81994491  0.23357019  0.33146727     0.09900
C656        C  0.71719262  0.18103717  0.30829014     0.03600
C657        C  0.67080749  0.13635863  0.31016835    -0.05100
C658        C  0.63328266  0.13246315  0.32904249    -0.23500
C659        C  0.64334161  0.17345700  0.34715214     0.12900
C660        C  0.69005460  0.21752821  0.34584273    -0.12600
N661        N  0.75291855  0.18447312  0.28727545     0.64600
H662        H  0.66336884  0.10512360  0.29597411     0.12400
N663        N  0.60724868  0.17009709  0.36787458     0.61200
H664        H  0.69768725  0.24797320  0.36072082     0.08600
O665        O  0.93081167  0.29984133  0.31365747    -0.40300
O666        O  0.92687744  0.30945100  0.36032814    -0.39400
O667        O  0.72000661  0.33890677  0.33967162    -0.39400
O668        O  0.71539040  0.31455676  0.29474367    -0.37100
O669        O  0.60362343  0.14917910  0.39202408    -0.38000
O670        O  0.58536807  0.19512646  0.36410189    -0.34200
O671        O  0.77373481  0.15826970  0.29026477    -0.35600
O672        O  0.75666020  0.20624556  0.26342374    -0.39900
C673        C  0.26871326  0.82109824  0.32147380    -0.13600
C674        C  0.26532493  0.78279654  0.33960382     0.16800
C675        C  0.30785540  0.79111824  0.35568262     0.03100
C676        C  0.35309418  0.83632915  0.35264419    -0.12100
C677        C  0.35687656  0.87427196  0.33410224    -0.03200
C678        C  0.31396094  0.86669693  0.31865464     0.02300
C679        C  0.21920557  0.73261745  0.33903772     0.09200
N680        N  0.30544385  0.75415530  0.37545489     0.65500
H681        H  0.38547998  0.84200145  0.36516237     0.18400
N682        N  0.31665166  0.90327092  0.29846990     0.76000
H683        H  0.23666967  0.81468113  0.30836553     0.09900
C684        C  0.17170879  0.72612266  0.34586864     0.03600
C685        C  0.12889909  0.67841879  0.34359571    -0.05100
C686        C  0.13218765  0.63646560  0.33435782    -0.23500
C687        C  0.17988302  0.64335319  0.32712152     0.12900
C688        C  0.22264940  0.69099891  0.32967123    -0.12600
N689        N  0.16647885  0.76741861  0.35564557     0.64600
H690        H  0.09281948  0.67422655  0.34942315     0.12400
N691        N  0.18539058  0.60314372  0.31568582     0.61200
H692        H  0.25882266  0.69586316  0.32337182     0.08600
O693        O  0.29338807  0.92654638  0.30362367    -0.40300
O694        O  0.33486644  0.90600515  0.27356031    -0.39400
O695        O  0.32793632  0.73040289  0.36948462    -0.39400
O696        O  0.28956323  0.75244504  0.40091011    -0.37100
O697        O  0.17849656  0.59313907  0.28891693    -0.38000
O698        O  0.20588579  0.58426204  0.33093460    -0.34200
O699        O  0.14928171  0.78728089  0.33857746    -0.35600
O700        O  0.16989122  0.77752865  0.38239850    -0.39900
C701        C  0.98138807  0.45434705  0.19658198    -0.13600
C702        C  0.00785904  0.50009031  0.18152977     0.16800
C703        C  0.03180954  0.54541175  0.19767133     0.03100
C704        C  0.02848343  0.54410550  0.22800840    -0.12100
C705        C  0.00303668  0.49834381  0.24277610    -0.03200
C706        C  0.97949598  0.45309952  0.22694177     0.02300
C707        C  0.00758175  0.49991879  0.14914650     0.09200
N708        N  0.06118854  0.59287093  0.18369263     0.65500
H709        H  0.04736341  0.57910344  0.24021295     0.18400
N710        N  0.95192239  0.40583557  0.24141760     0.76000
H711        H  0.96098607  0.41919228  0.18467349     0.09900
C712        C  0.01766675  0.46678300  0.13300374     0.03600
C713        C  0.01420367  0.46568607  0.10268083    -0.05100
C714        C  0.00240947  0.49815761  0.08776287    -0.23500
C715        C  0.99232540  0.53128720  0.10372746     0.12900
C716        C  0.99418220  0.53128977  0.13411113    -0.12600
N717        N  0.03337230  0.43539397  0.14696479     0.64600
H718        H  0.02275764  0.44048123  0.09060223     0.12400
N719        N  0.97803934  0.56353706  0.08945890     0.61200
H720        H  0.98414938  0.55550256  0.14605646     0.08600
O721        O  0.96872235  0.37585526  0.24188755    -0.40300
O722        O  0.90793541  0.39131472  0.25023010    -0.39400
O723        O  0.04750766  0.62530442  0.18493252    -0.39400
O724        O  0.10494353  0.60572670  0.17515712    -0.37100
O725        O  0.93229607  0.54777086  0.08407467    -0.38000
O726        O  0.00938639  0.60981788  0.08714845    -0.34200
O727        O  0.00580083  0.38823215  0.14568580    -0.35600
O728        O  0.07815502  0.45416882  0.15562490    -0.39900
C729        C  0.00123233  0.95735881  0.47314727    -0.13600
C730        C  0.99084646  0.99053497  0.48839047     0.16800
C731        C  0.97910304  0.02275419  0.47297890     0.03100
C732        C  0.97730709  0.02106879  0.44263506    -0.12100
C733        C  0.98782059  0.98802920  0.42702436    -0.03200
C734        C  0.00021043  0.95601921  0.44270621     0.02300
C735        C  0.99330457  0.99181580  0.52041521     0.09200
N736        N  0.96945170  0.05778821  0.48792286     0.65500
H737        H  0.96831232  0.04646690  0.43125347     0.18400
N738        N  0.01156597  0.92177015  0.42822371     0.76000
H739        H  0.01055640  0.93258431  0.48498834     0.09900
C740        C  0.95166105  0.95861918  0.53716768     0.03600
C741        C  0.95508849  0.96046509  0.56748315    -0.05100
C742        C  0.99989670  0.99477257  0.58166468    -0.23500
C743        C  0.04181168  0.02792852  0.56463955     0.12900
C744        C  0.03803055  0.02625228  0.53427762    -0.12600
N745        N  0.90579467  0.92253223  0.52361249     0.64600
H746        H  0.92253137  0.93428608  0.57996051     0.12400
N747        N  0.08820277  0.06398404  0.57772717     0.61200
H748        H  0.07027685  0.05192917  0.52140070     0.08600
O749        O  0.97770430  0.87645923  0.42512874    -0.40300
O750        O  0.05679847  0.93415536  0.42383540    -0.39400
O751        O  0.00419149  0.10277364  0.49082343    -0.39400
O752        O  0.92484881  0.04611258  0.49373955    -0.37100
O753        O  0.12372791  0.05472611  0.57954240    -0.38000
O754        O  0.09661814  0.10796133  0.58256932    -0.34200
O755        O  0.89560701  0.87747749  0.52128387    -0.35600
O756        O  0.87228121  0.93369520  0.51835701    -0.39900
C757        C  0.71039716  0.67528515  0.31993523    -0.13600
C758        C  0.71337642  0.71589250  0.33566202     0.16800
C759        C  0.67010496  0.70999420  0.34976051     0.03100
C760        C  0.62505429  0.66427126  0.34784751    -0.12100
C761        C  0.62213851  0.62341314  0.33250700    -0.03200
C762        C  0.66536857  0.62918696  0.31834183     0.02300
C763        C  0.76096142  0.76493161  0.33588698     0.09200
N764        N  0.67179992  0.74957164  0.36695328     0.65500
H765        H  0.59235382  0.66026016  0.35922224     0.18400
N766        N  0.66346094  0.58968617  0.30097910     0.76000
H767        H  0.74294972  0.67979577  0.30817427     0.09900
C768        C  0.80653895  0.76891282  0.34505811     0.03600
C769        C  0.85085423  0.81552652  0.34442669    -0.05100
C770        C  0.85093517  0.85902642  0.33495039    -0.23500
C771        C  0.80526359  0.85487517  0.32545385     0.12900
C772        C  0.76099592  0.80810443  0.32594106    -0.12600
N773        N  0.80810543  0.72624134  0.35602100     0.64600
H774        H  0.88533910  0.81777380  0.35204080     0.12400
N775        N  0.80353173  0.89704590  0.31380302     0.61200
H776        H  0.72645000  0.80532031  0.31797186     0.08600
O777        O  0.68705043  0.56795936  0.30898951    -0.40300
O778        O  0.64596992  0.58283304  0.27551857    -0.39400
O779        O  0.64658750  0.76982656  0.35937994    -0.39400
O780        O  0.69167976  0.75850261  0.39184156    -0.37100
O781        O  0.80983407  0.90565195  0.28691924    -0.38000
O782        O  0.78540664  0.91850102  0.32882274    -0.34200
O783        O  0.82807816  0.70651779  0.34106501    -0.35600
O784        O  0.79781328  0.71408912  0.38233167    -0.39900
C785        C  0.25856206  0.31103441  0.33895875    -0.13600
C786        C  0.25900162  0.26681470  0.34578702     0.16800
C787        C  0.30529854  0.26910561  0.35068023     0.03100
C788        C  0.35012599  0.31491939  0.34806120    -0.12100
C789        C  0.35007718  0.35934258  0.34078741    -0.03200
C790        C  0.30335135  0.35707038  0.33650086     0.02300
C791        C  0.21128410  0.21808474  0.34514117     0.09200
N792        N  0.30726349  0.22528534  0.35888449     0.65500
H793        H  0.38526128  0.31561847  0.35203144     0.18400
N794        N  0.30053724  0.40057457  0.32862831     0.76000
H795        H  0.22315404  0.30955415  0.33456049     0.09900
C796        C  0.17053823  0.20879919  0.36317259     0.03600
C797        C  0.12497504  0.16357525  0.36052661    -0.05100
C798        C  0.11932944  0.12692655  0.34031003    -0.23500
C799        C  0.15999491  0.13626354  0.32218493     0.12900
C800        C  0.20544274  0.18158544  0.32473660    -0.12600
N801        N  0.17540620  0.24430900  0.38481558     0.64600
H802        H  0.09407425  0.15661351  0.37479872     0.12400
N803        N  0.15460180  0.10157518  0.29984475     0.61200
H804        H  0.23601172  0.18896454  0.31008463     0.08600
O805        O  0.28710489  0.42161237  0.34726207    -0.40300
O806        O  0.30258351  0.41226906  0.30220423    -0.39400
O807        O  0.32270353  0.20499350  0.34096420    -0.39400
O808        O  0.30231058  0.21252146  0.38524057    -0.37100
O809        O  0.13763717  0.10416414  0.27533071    -0.38000
O810        O  0.17458333  0.07463031  0.30289478    -0.34200
O811        O  0.15580352  0.27134865  0.38062477    -0.35600
O812        O  0.19044325  0.24172750  0.40992118    -0.39900
C813        C  0.95321030  0.00751051  0.20108487    -0.13600
C814        C  0.98945310  0.00055662  0.18679717     0.16800
C815        C  0.02541079  0.99571989  0.20319192     0.03100
C816        C  0.02342165  0.99587259  0.23347417    -0.12100
C817        C  0.98658619  0.00181870  0.24803225    -0.03200
C818        C  0.95184366  0.00889283  0.23145717     0.02300
C819        C  0.98991697  0.99952641  0.15475608     0.09200
N820        N  0.06360645  0.98967832  0.18936460     0.65500
H821        H  0.05111310  0.99130829  0.24567576     0.18400
N822        N  0.91450859  0.01669685  0.24494622     0.76000
H823        H  0.92599971  0.01231872  0.18851643     0.09900
C824        C  0.95087113  0.95992122  0.13904711     0.03600
C825        C  0.95207069  0.96026849  0.10869041    -0.05100
C826        C  0.99152900  0.99997221  0.09349205    -0.23500
C827        C  0.03066991  0.03971069  0.10939708     0.12900
C828        C  0.02950800  0.03905541  0.13977037    -0.12600
N829        N  0.91023758  0.91872478  0.15369880     0.64600
H830        H  0.92162488  0.92938283  0.09694626     0.12400
N831        N  0.07258754  0.08021297  0.09514330     0.61200
H832        H  0.05969887  0.06975928  0.15178065     0.08600
O833        O  0.86975260  0.98098108  0.24590860    -0.40300
O834        O  0.92357716  0.06100145  0.24938361    -0.39400
O835        O  0.10734803  0.02697331  0.18712309    -0.39400
O836        O  0.05639017  0.94605670  0.18480982    -0.37100
O837        O  0.07407081  0.12173804  0.09207516    -0.38000
O838        O  0.11170302  0.07760178  0.09073730    -0.34200
O839        O  0.86889773  0.91763674  0.15646537    -0.35600
O840        O  0.91292277  0.88000021  0.15946401    -0.39900
loop_ 
_geom_bond_atom_site_label_1 
_geom_bond_atom_site_label_2 
_geom_bond_distance 
_geom_bond_site_symmetry_2 
_ccdc_geom_bond_type 
O1           Cu9   2.010       .  S
O1           C11   1.277   1_455  A
O2           Cu9   1.997       .  S
O2           C12   1.278   1_455  A
O3           Cu9   2.007   1_545  S
O3           C13   1.277       .  A
O4           Cu9   2.006   1_655  S
O4           C14   1.278       .  A
O5          Cu10   2.013   1_565  S
O5           C14   1.278       .  A
O6          Cu10   2.011   1_455  S
O6           C13   1.278       .  A
O7          Cu10   2.013       .  S
O7           C12   1.278   1_545  A
O8          Cu10   2.010       .  S
O8           C11   1.280   1_545  A
Cu9         Cu10   2.370   1_465  S
C11         C733   1.488       .  S
C12         C817   1.482   1_565  S
C13         C798   1.475       .  S
C14         C770   1.484       .  S
O15         Cu23   2.022       .  S
O15          C25   1.280       .  A
O16         Cu23   2.016   1_655  S
O16          C26   1.278       .  A
O17         Cu23   2.002       .  S
O17          C27   1.276       .  A
O18         Cu23   2.002       .  S
O18          C28   1.278       .  A
O19         Cu24   2.013       .  S
O19          C28   1.278   1_655  A
O20         Cu24   2.011       .  S
O20          C27   1.277   1_655  A
O21         Cu24   2.003       .  S
O21          C26   1.279       .  A
O22         Cu24   2.000   1_455  S
O22          C25   1.277       .  A
Cu23        Cu24   2.369   1_455  S
C25         C686   1.488       .  S
C26         C649   1.490       .  S
C27         C705   1.467       .  S
C28         C630   1.488       .  S
O29         Cu37   2.018   1_565  S
O29          C39   1.279       .  A
O30         Cu37   2.010       .  S
O30          C40   1.278       .  A
O31         Cu37   2.008       .  S
O31          C41   1.278   1_545  A
O32         Cu37   2.005       .  S
O32          C42   1.278       .  A
O33         Cu38   2.013       .  S
O33          C42   1.279   1_565  A
O34         Cu38   2.013       .  S
O34          C41   1.278       .  A
O35         Cu38   2.013   1_545  S
O35          C40   1.278       .  A
O36         Cu38   1.998       .  S
O36          C39   1.277       .  A
Cu37        Cu38   2.372   1_545  S
C39         C677   1.477       .  S
C40         C658   1.477       .  S
C41         C593   1.475       .  S
C42         C565   1.482       .  S
O43         Cu51   2.010       .  S
O43          C53   1.279       .  A
O44         Cu51   2.019       .  S
O44          C54   1.279       .  A
O45         Cu51   2.006       .  S
O45          C55   1.277       .  A
O46         Cu51   1.998       .  S
O46          C56   1.278       .  A
O47         Cu52   2.017       .  S
O47          C56   1.278       .  A
O48         Cu52   2.011       .  S
O48          C55   1.279       .  A
O49         Cu52   2.000       .  S
O49          C54   1.277       .  A
O50         Cu52   2.007       .  S
O50          C53   1.277       .  A
Cu51        Cu52   2.369       .  S
C53         C789   1.488       .  S
C54         C761   1.479       .  S
C55         C518   1.477       .  S
C56         C537   1.489       .  S
O57         Cu65   2.003   1_556  S
O57          C67   1.277   1_445  A
O58         Cu65   2.006       .  S
O58          C68   1.277   1_445  A
O59         Cu65   2.012       .  S
O59          C69   1.280   1_545  A
O60         Cu65   2.019   1_655  S
O60          C70   1.278       .  A
O61         Cu66   2.008       .  S
O61          C70   1.279   1_565  A
O62         Cu66   2.004   1_455  S
O62          C69   1.276       .  A
O63         Cu66   2.007       .  S
O63          C68   1.278       .  A
O64         Cu66   2.006   1_556  S
O64          C67   1.278       .  A
Cu65        Cu66   2.370   1_445  S
C67         C481   1.476       .  S
C68         C826   1.481       .  S
C69         C453   1.484       .  S
C70         C434   1.488       .  S
O71         Cu79   2.012   1_554  S
O71          C81   1.279   1_655  A
O72         Cu79   2.016       .  S
O72          C82   1.279   1_655  A
O73         Cu79   1.995   1_454  S
O73          C83   1.277       .  A
O74         Cu79   2.006       .  S
O74          C84   1.277       .  A
O75         Cu80   2.014   1_655  S
O75          C84   1.280       .  A
O76         Cu80   2.025   1_554  S
O76          C83   1.280       .  A
O77         Cu80   1.992       .  S
O77          C82   1.276       .  A
O78         Cu80   2.006   1_554  S
O78          C81   1.277       .  A
Cu79        Cu80   2.371   1_655  S
C81         C714   1.476       .  S
C82         C406   1.480       .  S
C83         C378   1.483       .  S
C84         C350   1.483       .  S
O85         Cu93   2.004       .  S
O85          C95   1.277       .  A
O86         Cu93   2.008       .  S
O86          C96   1.278       .  A
O87         Cu93   2.013       .  S
O87          C97   1.279       .  A
O88         Cu93   2.014   1_554  S
O88          C98   1.278       .  A
O89         Cu94   2.007   1_554  S
O89          C98   1.277   1_545  A
O90         Cu94   2.000       .  S
O90          C97   1.276   1_545  A
O91         Cu94   2.009       .  S
O91          C96   1.278   1_545  A
O92         Cu94   2.020       .  S
O92          C95   1.280   1_545  A
Cu93        Cu94   2.370   1_565  S
C95         C425   1.485       .  S
C96         C462   1.477       .  S
C97         C322   1.484       .  S
C98         C602   1.473       .  S
O99        Cu107   2.008       .  S
O99         C109   1.279       .  A
O100       Cu107   2.008   1_556  S
O100        C110   1.277       .  A
O101       Cu107   2.003   1_556  S
O101        C111   1.278       .  A
O102       Cu107   2.007       .  S
O102        C112   1.278       .  A
O103       Cu108   2.018       .  S
O103        C112   1.279       .  A
O104       Cu108   2.015       .  S
O104        C111   1.278   1_554  A
O105       Cu108   2.016   1_556  S
O105        C110   1.280       .  A
O106       Cu108   2.009       .  S
O106        C109   1.277       .  A
Cu107      Cu108   2.368       .  S
C109        C546   1.484       .  S
C110        C285   1.488       .  S
C111        C341   1.485       .  S
C112        C369   1.482       .  S
O113       Cu121   2.000       .  S
O113        C123   1.278   1_655  A
O114       Cu121   2.006       .  S
O114        C124   1.279   1_655  A
O115       Cu121   2.004       .  S
O115        C125   1.277   1_655  A
O116       Cu121   2.005   1_545  S
O116        C126   1.277   1_655  A
O117       Cu122   2.006       .  S
O117        C126   1.278       .  A
O118       Cu122   2.005   1_565  S
O118        C125   1.279       .  A
O119       Cu122   2.012       .  S
O119        C124   1.278   1_545  A
O120       Cu122   2.014       .  S
O120        C123   1.278   1_545  A
Cu121      Cu122   2.369   1_665  S
C123        C490   1.487       .  S
C124        C742   1.486   1_455  S
C125        C229   1.484   1_455  S
C126        C257   1.476       .  S
O127       Cu135   2.006       .  S
O127        C137   1.279   1_655  A
O128       Cu135   2.003       .  S
O128        C138   1.277   1_655  A
O129       Cu135   2.014       .  S
O129        C139   1.278   1_655  A
O130       Cu135   2.010       .  S
O130        C140   1.278   1_655  A
O131       Cu136   2.001       .  S
O131        C140   1.277       .  A
O132       Cu136   1.996       .  S
O132        C139   1.278       .  A
O133       Cu136   2.007       .  S
O133        C138   1.278       .  A
O134       Cu136   2.005       .  S
O134        C137   1.277       .  A
Cu135      Cu136   2.370   1_655  S
C137        C266   1.485       .  S
C138        C238   1.477       .  S
C139        C621   1.487   1_455  S
C140        C397   1.479       .  S
O141       Cu149   1.991       .  S
O141        C151   1.276       .  A
O142       Cu149   2.001       .  S
O142        C152   1.278       .  A
O143       Cu149   2.006   1_565  S
O143        C153   1.277       .  A
O144       Cu149   2.003       .  S
O144        C154   1.279       .  A
O145       Cu150   2.012       .  S
O145        C154   1.277       .  A
O146       Cu150   2.005   1_565  S
O146        C153   1.277       .  A
O147       Cu150   2.020       .  S
O147        C152   1.279       .  A
O148       Cu150   2.023       .  S
O148        C151   1.280       .  A
Cu149      Cu150   2.369       .  S
C151        C313   1.488       .  S
C152        C574   1.487       .  S
C153        C173   1.473       .  S
C154        C201   1.486       .  S
O155       Cu163   2.010       .  S
O155        C165   1.277       .  A
O156       Cu163   2.005       .  S
O156        C166   1.278       .  A
O157       Cu163   2.002       .  S
O157        C167   1.277       .  A
O158       Cu163   2.011       .  S
O158        C168   1.279       .  A
O159       Cu164   2.004       .  S
O159        C168   1.277       .  A
O160       Cu164   2.013       .  S
O160        C167   1.278       .  A
O161       Cu164   2.020       .  S
O161        C166   1.279       .  A
O162       Cu164   2.007       .  S
O162        C165   1.278       .  A
Cu163      Cu164   2.372       .  S
C165        C509   1.478       .  S
C166        C294   1.479       .  S
C167        C210   1.479       .  S
C168        C182   1.481       .  S
C169        C170   1.401       .  A
C169        C174   1.400       .  A
C169        H179   1.085       .  S
C170        C175   1.476       .  S
C170        C171   1.408       .  A
C171        C172   1.399       .  A
C171        N176   1.429       .  S
C172        C173   1.402       .  A
C172        H177   1.085       .  S
C173        C174   1.412       .  A
C174        N178   1.429       .  S
C175        C180   1.408       .  A
C175        C184   1.399       .  A
N176        O191   1.262       .  A
N176        O192   1.261       .  A
N178        O189   1.262       .  A
N178        O190   1.262       .  A
C180        C181   1.399       .  A
C180        N185   1.429       .  S
C181        C182   1.405       .  A
C181        H186   1.085       .  S
C182        C183   1.415       .  A
C183        C184   1.399       .  A
C183        N187   1.429       .  S
C184        H188   1.085       .  S
N185        O195   1.262       .  A
N185        O196   1.262       .  A
N187        O193   1.262       .  A
N187        O194   1.262       .  A
C197        C198   1.405       .  A
C197        C202   1.402       .  A
C197        H207   1.085       .  S
C198        C203   1.490       .  S
C198        C199   1.412       .  A
C199        C200   1.397       .  A
C199        N204   1.430       .  S
C200        C201   1.404       .  A
C200        H205   1.085       .  S
C201        C202   1.415       .  A
C202        N206   1.429       .  S
C203        C208   1.413       .  A
C203        C212   1.405       .  A
N204        O219   1.262       .  A
N204        O220   1.262       .  A
N206        O217   1.262       .  A
N206        O218   1.262       .  A
C208        C209   1.400       .  A
C208        N213   1.429       .  S
C209        C210   1.403       .  A
C209        H214   1.086       .  S
C210        C211   1.411       .  A
C211        C212   1.399       .  A
C211        N215   1.429       .  S
C212        H216   1.085       .  S
N213        O223   1.262       .  A
N213        O224   1.262       .  A
N215        O221   1.262       .  A
N215        O222   1.262       .  A
C225        C226   1.403   1_655  A
C225        C230   1.400       .  A
C225        H235   1.085       .  S
C226        C231   1.486       .  S
C226        C227   1.411       .  A
C227        C228   1.398       .  A
C227        N232   1.429       .  S
C228        C229   1.405   1_455  A
C228        H233   1.085       .  S
C229        C230   1.415       .  A
C230        N234   1.429       .  S
C231        C236   1.412   1_455  A
C231        C240   1.404       .  A
N232        O247   1.262       .  A
N232        O248   1.262       .  A
N234        O245   1.262       .  A
N234        O246   1.262       .  A
C236        C237   1.399       .  A
C236        N241   1.430       .  S
C237        C238   1.403   1_655  A
C237        H242   1.085       .  S
C238        C239   1.411       .  A
C239        C240   1.399       .  A
C239        N243   1.429       .  S
C240        H244   1.085       .  S
N241        O251   1.262       .  A
N241        O252   1.262       .  A
N243        O249   1.262       .  A
N243        O250   1.262       .  A
C253        C254   1.404   1_655  A
C253        C258   1.399       .  A
C253        H263   1.086       .  S
C254        C259   1.486       .  S
C254        C255   1.412       .  A
C255        C256   1.399       .  A
C255        N260   1.429       .  S
C256        C257   1.402       .  A
C256        H261   1.086       .  S
C257        C258   1.411   1_455  A
C258        N262   1.429       .  S
C259        C264   1.411   1_455  A
C259        C268   1.403       .  A
N260        O275   1.262       .  A
N260        O276   1.262       .  A
N262        O273   1.262       .  A
N262        O274   1.262       .  A
C264        C265   1.398       .  A
C264        N269   1.430       .  S
C265        C266   1.405   1_655  A
C265        H270   1.086       .  S
C266        C267   1.415       .  A
C267        C268   1.400       .  A
C267        N271   1.429       .  S
C268        H272   1.086       .  S
N269        O279   1.262       .  A
N269        O280   1.262       .  A
N271        O277   1.262       .  A
N271        O278   1.262       .  A
C281        C282   1.403       .  A
C281        C286   1.402       .  A
C281        H291   1.085       .  S
C282        C287   1.487       .  S
C282        C283   1.410       .  A
C283        C284   1.401       .  A
C283        N288   1.429       .  S
C284        C285   1.405       .  A
C284        H289   1.085       .  S
C285        C286   1.416       .  A
C286        N290   1.429       .  S
C287        C292   1.411       .  A
C287        C296   1.405       .  A
N288        O303   1.262       .  A
N288        O304   1.262       .  A
N290        O301   1.262       .  A
N290        O302   1.262       .  A
C292        C293   1.400       .  A
C292        N297   1.429       .  S
C293        C294   1.403       .  A
C293        H298   1.086       .  S
C294        C295   1.411       .  A
C295        C296   1.403       .  A
C295        N299   1.428       .  S
C296        H300   1.085       .  S
N297        O307   1.262       .  A
N297        O308   1.262       .  A
N299        O305   1.262       .  A
N299        O306   1.262       .  A
C309        C310   1.400   1_545  A
C309        C314   1.401       .  A
C309        H319   1.085       .  S
C310        C315   1.475       .  S
C310        C311   1.405       .  A
C311        C312   1.398       .  A
C311        N316   1.429       .  S
C312        C313   1.409   1_565  A
C312        H317   1.084       .  S
C313        C314   1.415       .  A
C314        N318   1.428       .  S
C315        C320   1.407       .  A
C315        C324   1.398   1_565  A
N316        O331   1.262       .  A
N316        O332   1.262       .  A
N318        O329   1.262       .  A
N318        O330   1.262       .  A
C320        C321   1.401       .  A
C320        N325   1.429       .  S
C321        C322   1.407       .  A
C321        H326   1.085       .  S
C322        C323   1.416   1_565  A
C323        C324   1.397       .  A
C323        N327   1.429       .  S
C324        H328   1.085       .  S
N325        O335   1.262       .  A
N325        O336   1.262       .  A
N327        O333   1.262       .  A
N327        O334   1.261       .  A
C337        C338   1.404   1_554  A
C337        C342   1.400       .  A
C337        H347   1.085       .  S
C338        C343   1.489       .  S
C338        C339   1.412       .  A
C339        C340   1.400       .  A
C339        N344   1.429       .  S
C340        C341   1.406       .  A
C340        H345   1.085       .  S
C341        C342   1.413   1_556  A
C342        N346   1.428       .  S
C343        C348   1.412       .  A
C343        C352   1.404   1_556  A
N344        O359   1.262       .  A
N344        O360   1.262       .  A
N346        O357   1.262       .  A
N346        O358   1.261       .  A
C348        C349   1.400       .  A
C348        N353   1.429       .  S
C349        C350   1.403       .  A
C349        H354   1.086       .  S
C350        C351   1.413   1_556  A
C351        C352   1.401       .  A
C351        N355   1.429       .  S
C352        H356   1.085       .  S
N353        O363   1.262       .  A
N353        O364   1.262       .  A
N355        O361   1.262       .  A
N355        O362   1.262       .  A
C365        C366   1.402       .  A
C365        C370   1.401       .  A
C365        H375   1.085       .  S
C366        C371   1.482       .  S
C366        C367   1.411   1_554  A
C367        C368   1.401       .  A
C367        N372   1.430       .  S
C368        C369   1.405   1_556  A
C368        H373   1.085       .  S
C369        C370   1.412       .  A
C370        N374   1.428       .  S
C371        C376   1.409       .  A
C371        C380   1.403   1_554  A
N372        O387   1.262       .  A
N372        O388   1.262       .  A
N374        O385   1.262       .  A
N374        O386   1.262       .  A
C376        C377   1.399       .  A
C376        N381   1.430       .  S
C377        C378   1.405       .  A
C377        H382   1.085       .  S
C378        C379   1.413   1_554  A
C379        C380   1.402       .  A
C379        N383   1.428       .  S
C380        H384   1.085       .  S
N381        O391   1.262       .  A
N381        O392   1.262       .  A
N383        O389   1.262       .  A
N383        O390   1.262       .  A
C393        C394   1.401   1_655  A
C393        C398   1.399       .  A
C393        H403   1.086       .  S
C394        C399   1.478       .  S
C394        C395   1.408       .  A
C395        C396   1.399       .  A
C395        N400   1.429       .  S
C396        C397   1.405       .  A
C396        H401   1.086       .  S
C397        C398   1.413   1_455  A
C398        N402   1.429       .  S
C399        C404   1.407       .  A
C399        C408   1.402       .  A
N400        O415   1.262       .  A
N400        O416   1.262       .  A
N402        O413   1.262       .  A
N402        O414   1.262       .  A
C404        C405   1.397       .  A
C404        N409   1.429       .  S
C405        C406   1.405       .  A
C405        H410   1.085       .  S
C406        C407   1.413       .  A
C407        C408   1.400       .  A
C407        N411   1.428       .  S
C408        H412   1.086       .  S
N409        O419   1.262   1_455  A
N409        O420   1.262       .  A
N411        O417   1.262   1_455  A
N411        O418   1.262       .  A
C421        C422   1.403   1_565  A
C421        C426   1.401       .  A
C421        H431   1.085       .  S
C422        C427   1.490   1_556  S
C422        C423   1.412   1_556  A
C423        C424   1.402       .  A
C423        N428   1.429       .  S
C424        C425   1.404   1_544  A
C424        H429   1.085       .  S
C425        C426   1.414       .  A
C426        N430   1.429       .  S
C427        C432   1.411   1_545  A
C427        C436   1.404   1_554  A
N428        O443   1.262       .  A
N428        O444   1.262       .  A
N430        O441   1.262       .  A
N430        O442   1.262       .  A
C432        C433   1.399       .  A
C432        N437   1.429       .  S
C433        C434   1.405   1_565  A
C433        H438   1.085       .  S
C434        C435   1.415   1_554  A
C435        C436   1.403       .  A
C435        N439   1.429       .  S
C436        H440   1.085       .  S
N437        O447   1.262       .  A
N437        O448   1.262       .  A
N439        O445   1.262       .  A
N439        O446   1.261       .  A
C449        C450   1.402   1_556  A
C449        C454   1.402       .  A
C449        H459   1.085       .  S
C450        C455   1.483       .  S
C450        C451   1.409   1_565  A
C451        C452   1.398       .  A
C451        N456   1.429       .  S
C452        C453   1.404   1_545  A
C452        H457   1.085       .  S
C453        C454   1.416   1_554  A
C454        N458   1.430       .  S
C455        C460   1.410       .  A
C455        C464   1.403   1_564  A
N456        O471   1.262       .  A
N456        O472   1.262       .  A
N458        O469   1.262   1_556  A
N458        O470   1.262       .  A
C460        C461   1.401       .  A
C460        N465   1.429       .  S
C461        C462   1.404   1_554  A
C461        H466   1.086       .  S
C462        C463   1.410   1_565  A
C463        C464   1.399       .  A
C463        N467   1.428       .  S
C464        H468   1.086       .  S
N465        O475   1.262       .  A
N465        O476   1.262       .  A
N467        O473   1.262       .  A
N467        O474   1.262       .  A
C477        C478   1.399   1_545  A
C477        C482   1.398       .  A
C477        H487   1.086       .  S
C478        C483   1.475   1_655  S
C478        C479   1.406   1_655  A
C479        C480   1.400   1_455  A
C479        N484   1.428       .  S
C480        C481   1.405       .  A
C480        H485   1.086       .  S
C481        C482   1.412   1_565  A
C482        N486   1.428       .  S
C483        C488   1.405   1_455  A
C483        C492   1.400       .  A
N484        O499   1.262       .  A
N484        O500   1.262   1_455  A
N486        O497   1.262   1_655  A
N486        O498   1.261       .  A
C488        C489   1.396       .  A
C488        N493   1.429       .  S
C489        C490   1.407   1_655  A
C489        H494   1.085       .  S
C490        C491   1.418       .  A
C491        C492   1.402       .  A
C491        N495   1.429   1_565  S
C492        H496   1.086   1_565  S
N493        O503   1.262       .  A
N493        O504   1.262       .  A
N495        O501   1.262       .  A
N495        O502   1.262   1_545  A
C505        C506   1.402       .  A
C505        C510   1.402       .  A
C505        H515   1.085       .  S
C506        C511   1.480       .  S
C506        C507   1.410       .  A
C507        C508   1.399       .  A
C507        N512   1.430       .  S
C508        C509   1.403       .  A
C508        H513   1.085       .  S
C509        C510   1.413       .  A
C510        N514   1.429       .  S
C511        C516   1.409       .  A
C511        C520   1.402       .  A
N512        O527   1.262       .  A
N512        O528   1.262       .  A
N514        O525   1.262       .  A
N514        O526   1.262       .  A
C516        C517   1.400       .  A
C516        N521   1.429       .  S
C517        C518   1.403       .  A
C517        H522   1.085       .  S
C518        C519   1.412       .  A
C519        C520   1.401       .  A
C519        N523   1.429       .  S
C520        H524   1.085       .  S
N521        O531   1.262       .  A
N521        O532   1.262       .  A
N523        O529   1.262       .  A
N523        O530   1.262       .  A
C533        C534   1.400       .  A
C533        C538   1.402       .  A
C533        H543   1.084       .  S
C534        C539   1.475       .  S
C534        C535   1.404       .  A
C535        C536   1.398       .  A
C535        N540   1.429       .  S
C536        C537   1.409       .  A
C536        H541   1.083       .  S
C537        C538   1.417       .  A
C538        N542   1.429       .  S
C539        C544   1.406       .  A
C539        C548   1.399       .  A
N540        O555   1.262       .  A
N540        O556   1.262       .  A
N542        O553   1.262       .  A
N542        O554   1.262       .  A
C544        C545   1.398       .  A
C544        N549   1.429       .  S
C545        C546   1.406       .  A
C545        H550   1.087       .  S
C546        C547   1.415       .  A
C547        C548   1.400       .  A
C547        N551   1.428       .  S
C548        H552   1.088       .  S
N549        O559   1.262       .  A
N549        O560   1.262       .  A
N551        O557   1.262       .  A
N551        O558   1.262       .  A
C561        C562   1.401   1_565  A
C561        C566   1.400       .  A
C561        H571   1.085       .  S
C562        C567   1.480       .  S
C562        C563   1.409       .  A
C563        C564   1.401       .  A
C563        N568   1.429       .  S
C564        C565   1.406       .  A
C564        H569   1.085       .  S
C565        C566   1.413   1_545  A
C566        N570   1.429       .  S
C567        C572   1.408       .  A
C567        C576   1.401       .  A
N568        O583   1.262       .  A
N568        O584   1.262       .  A
N570        O581   1.262       .  A
N570        O582   1.262       .  A
C572        C573   1.400       .  A
C572        N577   1.430       .  S
C573        C574   1.407       .  A
C573        H578   1.085       .  S
C574        C575   1.414       .  A
C575        C576   1.401       .  A
C575        N579   1.428       .  S
C576        H580   1.085       .  S
N577        O587   1.262   1_545  A
N577        O588   1.262       .  A
N579        O585   1.262       .  A
N579        O586   1.262       .  A
C589        C590   1.406       .  A
C589        C594   1.401       .  A
C589        H599   1.086       .  S
C590        C595   1.492       .  S
C590        C591   1.415   1_565  A
C591        C592   1.400       .  A
C591        N596   1.430       .  S
C592        C593   1.401   1_545  A
C592        H597   1.087       .  S
C593        C594   1.409       .  A
C594        N598   1.429       .  S
C595        C600   1.415       .  A
C595        C604   1.406   1_565  A
N596        O611   1.262       .  A
N596        O612   1.262       .  A
N598        O609   1.262       .  A
N598        O610   1.262       .  A
C600        C601   1.401       .  A
C600        N605   1.429       .  S
C601        C602   1.400       .  A
C601        H606   1.087       .  S
C602        C603   1.408   1_565  A
C603        C604   1.400       .  A
C603        N607   1.429       .  S
C604        H608   1.086       .  S
N605        O615   1.262       .  A
N605        O616   1.262       .  A
N607        O613   1.262       .  A
N607        O614   1.262       .  A
C617        C618   1.401   1_655  A
C617        C622   1.401       .  A
C617        H627   1.085       .  S
C618        C623   1.478       .  S
C618        C619   1.407       .  A
C619        C620   1.397       .  A
C619        N624   1.430       .  S
C620        C621   1.407   1_455  A
C620        H625   1.085       .  S
C621        C622   1.416       .  A
C622        N626   1.429       .  S
C623        C628   1.407       .  A
C623        C632   1.400   1_455  A
N624        O639   1.262       .  A
N624        O640   1.262       .  A
N626        O637   1.262       .  A
N626        O638   1.262       .  A
C628        C629   1.398       .  A
C628        N633   1.430       .  S
C629        C630   1.408       .  A
C629        H634   1.085       .  S
C630        C631   1.417   1_455  A
C631        C632   1.401       .  A
C631        N635   1.428       .  S
C632        H636   1.085       .  S
N633        O643   1.262       .  A
N633        O644   1.262       .  A
N635        O641   1.262       .  A
N635        O642   1.262       .  A
C645        C646   1.405       .  A
C645        C650   1.404       .  A
C645        H655   1.085       .  S
C646        C651   1.491       .  S
C646        C647   1.412       .  A
C647        C648   1.397       .  A
C647        N652   1.430       .  S
C648        C649   1.406       .  A
C648        H653   1.085       .  S
C649        C650   1.416       .  A
C650        N654   1.429       .  S
C651        C656   1.414       .  A
C651        C660   1.405       .  A
N652        O667   1.262       .  A
N652        O668   1.262       .  A
N654        O665   1.262       .  A
N654        O666   1.262       .  A
C656        C657   1.403       .  A
C656        N661   1.429       .  S
C657        C658   1.403       .  A
C657        H662   1.086       .  S
C658        C659   1.409       .  A
C659        C660   1.399       .  A
C659        N663   1.429       .  S
C660        H664   1.086       .  S
N661        O671   1.262       .  A
N661        O672   1.262       .  A
N663        O669   1.262       .  A
N663        O670   1.262       .  A
C673        C674   1.404       .  A
C673        C678   1.403       .  A
C673        H683   1.085       .  S
C674        C679   1.484       .  S
C674        C675   1.409       .  A
C675        C676   1.397       .  A
C675        N680   1.429       .  S
C676        C677   1.403       .  A
C676        H681   1.086       .  S
C677        C678   1.411       .  A
C678        N682   1.429       .  S
C679        C684   1.408       .  A
C679        C688   1.403       .  A
N680        O695   1.262       .  A
N680        O696   1.262       .  A
N682        O693   1.262       .  A
N682        O694   1.262       .  A
C684        C685   1.401       .  A
C684        N689   1.429       .  S
C685        C686   1.408       .  A
C685        H690   1.085       .  S
C686        C687   1.414       .  A
C687        C688   1.400       .  A
C687        N691   1.429       .  S
C688        H692   1.086       .  S
N689        O699   1.262       .  A
N689        O700   1.262       .  A
N691        O697   1.262       .  A
N691        O698   1.262       .  A
C701        C702   1.406   1_655  A
C701        C706   1.399       .  A
C701        H711   1.087       .  S
C702        C707   1.491       .  S
C702        C703   1.416       .  A
C703        C704   1.400       .  A
C703        N708   1.429       .  S
C704        C705   1.398       .  A
C704        H709   1.088       .  S
C705        C706   1.407   1_455  A
C706        N710   1.430       .  S
C707        C712   1.415       .  A
C707        C716   1.406   1_455  A
N708        O723   1.262       .  A
N708        O724   1.262       .  A
N710        O721   1.262       .  A
N710        O722   1.262       .  A
C712        C713   1.399       .  A
C712        N717   1.429       .  S
C713        C714   1.401       .  A
C713        H718   1.087       .  S
C714        C715   1.410   1_455  A
C715        C716   1.400       .  A
C715        N719   1.429       .  S
C716        H720   1.087       .  S
N717        O727   1.262       .  A
N717        O728   1.262       .  A
N719        O725   1.262       .  A
N719        O726   1.262   1_655  A
C729        C730   1.400   1_455  A
C729        C734   1.402       .  A
C729        H739   1.085       .  S
C730        C735   1.476       .  S
C730        C731   1.404   1_565  A
C731        C732   1.398       .  A
C731        N736   1.428       .  S
C732        C733   1.407   1_545  A
C732        H737   1.085       .  S
C733        C734   1.418   1_655  A
C734        N738   1.429       .  S
C735        C740   1.405       .  A
C735        C744   1.400   1_665  A
N736        O751   1.262   1_655  A
N736        O752   1.262       .  A
N738        O749   1.262   1_455  A
N738        O750   1.262       .  A
C740        C741   1.399       .  A
C740        N745   1.428       .  S
C741        C742   1.407       .  A
C741        H746   1.085       .  S
C742        C743   1.416   1_665  A
C743        C744   1.402       .  A
C743        N747   1.429       .  S
C744        H748   1.085       .  S
N745        O755   1.262       .  A
N745        O756   1.262       .  A
N747        O753   1.262       .  A
N747        O754   1.262       .  A
C757        C758   1.405       .  A
C757        C762   1.402       .  A
C757        H767   1.085       .  S
C758        C763   1.485       .  S
C758        C759   1.410       .  A
C759        C760   1.398       .  A
C759        N764   1.429       .  S
C760        C761   1.403       .  A
C760        H765   1.086       .  S
C761        C762   1.411       .  A
C762        N766   1.429       .  S
C763        C768   1.409       .  A
C763        C772   1.403       .  A
N764        O779   1.262       .  A
N764        O780   1.262       .  A
N766        O777   1.262       .  A
N766        O778   1.262       .  A
C768        C769   1.399       .  A
C768        N773   1.428       .  S
C769        C770   1.405       .  A
C769        H774   1.085       .  S
C770        C771   1.414       .  A
C771        C772   1.401       .  A
C771        N775   1.428       .  S
C772        H776   1.086       .  S
N773        O783   1.262       .  A
N773        O784   1.262       .  A
N775        O781   1.261       .  A
N775        O782   1.262       .  A
C785        C786   1.402       .  A
C785        C790   1.401       .  A
C785        H795   1.086       .  S
C786        C791   1.483       .  S
C786        C787   1.408       .  A
C787        C788   1.399       .  A
C787        N792   1.429       .  S
C788        C789   1.406       .  A
C788        H793   1.085       .  S
C789        C790   1.417       .  A
C790        N794   1.429       .  S
C791        C796   1.410       .  A
C791        C800   1.403       .  A
N792        O807   1.262       .  A
N792        O808   1.262       .  A
N794        O805   1.262       .  A
N794        O806   1.262       .  A
C796        C797   1.400       .  A
C796        N801   1.429       .  S
C797        C798   1.403       .  A
C797        H802   1.086       .  S
C798        C799   1.410       .  A
C799        C800   1.400       .  A
C799        N803   1.429       .  S
C800        H804   1.086       .  S
N801        O811   1.262       .  A
N801        O812   1.262       .  A
N803        O809   1.262       .  A
N803        O810   1.262       .  A
C813        C814   1.401       .  A
C813        C818   1.401       .  A
C813        H823   1.086       .  S
C814        C819   1.476   1_545  S
C814        C815   1.406   1_645  A
C815        C816   1.396       .  A
C815        N820   1.428       .  S
C816        C817   1.406   1_465  A
C816        H821   1.086       .  S
C817        C818   1.415       .  A
C818        N822   1.428       .  S
C819        C824   1.407       .  A
C819        C828   1.400   1_665  A
N820        O835   1.262   1_565  A
N820        O836   1.262       .  A
N822        O833   1.261   1_545  A
N822        O834   1.262       .  A
C824        C825   1.399       .  A
C824        N829   1.429       .  S
C825        C826   1.405       .  A
C825        H830   1.086       .  S
C826        C827   1.415   1_665  A
C827        C828   1.399       .  A
C827        N831   1.429       .  S
C828        H832   1.086       .  S
N829        O839   1.262       .  A
N829        O840   1.262       .  A
N831        O837   1.262       .  A
N831        O838   1.262       .  A
