geometry optimzed in LAMMPS
_audit_creation_date              2020-12-01 
_audit_creation_method            'lammps2cif' 
_symmetry_space_group_name_H-M    'P1' 
_symmetry_Int_Tables_number       1 
_symmetry_cell_setting            triclinic 
loop_ 
_symmetry_equiv_pos_as_xyz 
  x,y,z 
_cell_length_a                    46.88685235 
_cell_length_b                    46.90531282119625 
_cell_length_c                    46.95161356040516 
_cell_angle_alpha                 90.03121910074344 
_cell_angle_beta                  89.98692582080888 
_cell_angle_gamma                 90.01669489327068 
loop_ 
_atom_site_label 
_atom_site_type_symbol 
_atom_site_fract_x 
_atom_site_fract_y 
_atom_site_fract_z 
_atom_site_charge 
In1        In  0.74869503  0.36039660  0.86121617     1.36900
C2          C  0.78050712  0.34701174  0.81647499     0.79400
O3          O  0.78626903  0.38275480  0.88020141    -0.59000
O4          O  0.76530999  0.35096899  0.90509262    -0.49900
C5          C  0.71351498  0.40374565  0.86943147     0.72100
O6          O  0.73240368  0.40411002  0.85024724    -0.44800
C7          C  0.71586153  0.31581216  0.84959995     0.76800
O8          O  0.76227546  0.36682995  0.81565383    -0.56600
O9          O  0.73442669  0.31519315  0.86908272    -0.46700
O10         O  0.78454131  0.33638261  0.84073703    -0.53100
C11         C  0.78543400  0.36877682  0.90312824     0.87000
O12         O  0.71311962  0.38168336  0.88476319    -0.55000
O13         O  0.71194845  0.33991154  0.83854299    -0.58300
In14       In  0.75230755  0.74598096  0.86522650     1.36900
C15         C  0.72014069  0.79083785  0.85279883     0.79400
O16         O  0.78895326  0.76944204  0.84553545    -0.59000
O17         O  0.76746633  0.73829470  0.82055819    -0.49900
C18         C  0.78657786  0.73643447  0.90886664     0.72100
O19         O  0.76722194  0.75512283  0.90977948    -0.44800
C20         C  0.71615229  0.70334792  0.87086011     0.76800
O21         O  0.73865124  0.79157097  0.87232987    -0.56600
O22         O  0.73613732  0.70274572  0.85284953    -0.46700
O23         O  0.71614042  0.76664622  0.84196256    -0.53100
C24         C  0.78568279  0.75808618  0.82147387     0.87000
O25         O  0.78790431  0.72226964  0.88608903    -0.55000
O26         O  0.71518669  0.72524693  0.88642713    -0.58300
In27       In  0.75203238  0.74416081  0.24517848     1.36900
C28         C  0.72037556  0.78894770  0.25811537     0.79400
O29         O  0.71502466  0.72479918  0.22246085    -0.59000
O30         O  0.73453413  0.70090088  0.25590787    -0.49900
C31         C  0.78721562  0.73501549  0.20239113     0.72100
O32         O  0.76794322  0.75378458  0.20118237    -0.44800
C33         C  0.78493155  0.75645300  0.28936632     0.76800
O34         O  0.73908161  0.78991884  0.23876471    -0.56600
O35         O  0.76655743  0.73675847  0.29023196    -0.46700
O36         O  0.71582176  0.76458242  0.26830445    -0.53100
C37         C  0.71497275  0.70250078  0.23746266     0.87000
O38         O  0.78787966  0.72046374  0.22495464    -0.55000
O39         O  0.78861956  0.76743368  0.26520653    -0.58300
In40       In  0.74804090  0.36075514  0.24178791     1.36900
C41         C  0.71489948  0.31719399  0.25566252     0.79400
O42         O  0.78383071  0.33744437  0.26259826    -0.59000
O43         O  0.76169908  0.36871077  0.28697516    -0.49900
C44         C  0.78492939  0.36776239  0.20007264     0.72100
O45         O  0.76502883  0.34963944  0.19853589    -0.44800
C46         C  0.71345892  0.40376208  0.23110032     0.76800
O47         O  0.73345846  0.31531581  0.23622190    -0.56600
O48         O  0.73245404  0.40519911  0.25013013    -0.46700
O49         O  0.71123308  0.34188701  0.26548254    -0.53100
C50         C  0.77987677  0.34881277  0.28654472     0.87000
O51         O  0.78547243  0.38260148  0.22246350    -0.55000
O52         O  0.71251350  0.38067556  0.21734637    -0.58300
In53       In  0.81004470  0.80033625  0.36031750     1.36900
C54         C  0.79764328  0.76881473  0.31502209     0.79400
O55         O  0.83199110  0.76337861  0.38074171    -0.59000
O56         O  0.79945665  0.78487334  0.40422762    -0.49900
C57         C  0.85336890  0.83549175  0.36834885     0.72100
O58         O  0.85419238  0.81587706  0.34991356    -0.44800
C59         C  0.76515067  0.83264800  0.34920418     0.76800
O60         O  0.81637433  0.78815169  0.31425663    -0.56600
O61         O  0.76419950  0.81266397  0.36716282    -0.46700
O62         O  0.78778579  0.76364206  0.33937616    -0.53100
C63         C  0.81730777  0.76475497  0.40321494     0.87000
O64         O  0.83093425  0.83650894  0.38312496    -0.55000
O65         O  0.78957545  0.83807084  0.33956318    -0.58300
In66       In  0.81042218  0.80186552  0.75088547     1.36900
C67         C  0.79844119  0.77020294  0.79583351     0.79400
O68         O  0.79092440  0.83802824  0.77514855    -0.59000
O69         O  0.76550477  0.81704629  0.74401654    -0.49900
C70         C  0.85347825  0.83650574  0.74048976     0.72100
O71         O  0.85524692  0.81682344  0.75874959    -0.44800
C72         C  0.81585633  0.76535120  0.70858040     0.76800
O73         O  0.81765066  0.78907852  0.79651075    -0.56600
O74         O  0.79770880  0.78523815  0.70798322    -0.46700
O75         O  0.78800425  0.76542684  0.77163011    -0.53100
C76         C  0.76669922  0.83501004  0.76403270     0.87000
O77         O  0.83020863  0.83785883  0.72713491    -0.55000
O78         O  0.83165766  0.76465845  0.73031033    -0.58300
In79       In  0.19271369  0.80461851  0.73948183     1.36900
C80         C  0.20533435  0.77179001  0.78357047     0.79400
O81         O  0.16973851  0.76837357  0.71919411    -0.59000
O82         O  0.20273031  0.78879474  0.69538189    -0.49900
C83         C  0.14967306  0.83980917  0.73130766     0.72100
O84         O  0.14905028  0.82066342  0.75020187    -0.44800
C85         C  0.23641312  0.83750561  0.75326191     0.76800
O86         O  0.18477384  0.78919041  0.78414429    -0.56600
O87         O  0.23797737  0.81933775  0.73343644    -0.46700
O88         O  0.21718575  0.76900170  0.75967629    -0.53100
C89         C  0.18406452  0.76939126  0.69649903     0.87000
O90         O  0.17200246  0.84064591  0.71633086    -0.55000
O91         O  0.21185425  0.84112717  0.76343116    -0.58300
In92       In  0.19126282  0.80501879  0.36353690     1.36900
C93         C  0.20578287  0.77261466  0.31953095     0.79400
O94         O  0.21096628  0.84125563  0.33956063    -0.59000
O95         O  0.23564928  0.82114988  0.37181209    -0.49900
C96         C  0.14723241  0.83951604  0.37202547     0.72100
O97         O  0.14687093  0.82029942  0.35315767    -0.44800
C98         C  0.18435779  0.76815116  0.40538335     0.76800
O99         O  0.18511905  0.78989046  0.31838015    -0.56600
O100        O  0.20167565  0.78870051  0.40726334    -0.46700
O101        O  0.21691154  0.76992376  0.34375420    -0.53100
C102        C  0.23488866  0.83869966  0.35143100     0.87000
O103        O  0.16960768  0.84054436  0.38687880    -0.55000
O104        O  0.17007399  0.76704002  0.38265720    -0.58300
In105      In  0.69068518  0.24471883  0.80601533     1.36900
C106        C  0.70318263  0.28998858  0.83747348     0.79400
O107        O  0.66716053  0.22526917  0.84230767    -0.59000
O108        O  0.70054961  0.20110913  0.82286395    -0.49900
C109        C  0.64810159  0.23569956  0.77044570     0.72100
O110        O  0.64713997  0.25505021  0.78916234    -0.44800
C111        C  0.73519926  0.25620055  0.77347386     0.76800
O112        O  0.68403054  0.29060510  0.81856057    -0.56600
O113        O  0.73645709  0.23806296  0.79330405    -0.46700
O114        O  0.71345377  0.26570674  0.84233799    -0.53100
C115        C  0.68166666  0.20263872  0.84200191     0.87000
O116        O  0.67037831  0.22062993  0.77043741    -0.55000
O117        O  0.71067857  0.26572921  0.76831480    -0.58300
In118      In  0.69600711  0.86101880  0.80750793     1.36900
C119        C  0.70757482  0.81652751  0.84032701     0.79400
O120        O  0.71668805  0.83895482  0.77072263    -0.59000
O121        O  0.74233056  0.86643905  0.79605983    -0.49900
C122        C  0.65393154  0.86783749  0.77086252     0.72100
O123        O  0.65224335  0.85041399  0.79131651    -0.44800
C124        C  0.68677682  0.90540749  0.84081313     0.76800
O125        O  0.68881740  0.81557730  0.82105750    -0.56600
O126        O  0.70584845  0.90565464  0.82181334    -0.46700
O127        O  0.71766692  0.84092044  0.84508279    -0.53100
C128        C  0.74125639  0.84808373  0.77639276     0.87000
O129        O  0.67667403  0.88215720  0.76963800    -0.55000
O130        O  0.67219857  0.88287299  0.84232781    -0.58300
In131      In  0.30553063  0.86247214  0.80003741     1.36900
C132        C  0.26161369  0.85000897  0.76671207     0.79400
O133        O  0.32647027  0.88548698  0.76406839    -0.59000
O134        O  0.34936871  0.85169054  0.78417410    -0.49900
C135        C  0.31292067  0.90549530  0.83561018     0.72100
O136        O  0.29476672  0.90637032  0.81576786    -0.44800
C137        C  0.29299908  0.81791518  0.83230815     0.76800
O138        O  0.26008563  0.86883918  0.78588156    -0.56600
O139        O  0.31310456  0.81731311  0.81441415    -0.46700
O140        O  0.28612299  0.83988468  0.76274377    -0.53100
C141        C  0.34872306  0.87040592  0.76484802     0.87000
O142        O  0.32780288  0.88313506  0.83668760    -0.55000
O143        O  0.28168505  0.84195921  0.83584932    -0.58300
In144      In  0.30439884  0.24277042  0.80222837     1.36900
C145        C  0.29401856  0.28825525  0.83390430     0.79400
O146        O  0.28480721  0.26587161  0.76526443    -0.59000
O147        O  0.25849053  0.23803874  0.78944868    -0.49900
C148        C  0.34714500  0.23248083  0.76716455     0.72100
O149        O  0.34896407  0.25089034  0.78672609    -0.44800
C150        C  0.30986007  0.19961777  0.83788973     0.76800
O151        O  0.31324856  0.28820731  0.81505195    -0.56600
O152        O  0.29224250  0.19907107  0.81755287    -0.46700
O153        O  0.28276140  0.26439594  0.83868938    -0.53100
C154        C  0.26006369  0.25675145  0.77019760     0.87000
O155        O  0.32392967  0.21896315  0.76605939    -0.55000
O156        O  0.32510680  0.22171701  0.83944857    -0.58300
In157      In  0.69563412  0.85845363  0.30410372     1.36900
C158        C  0.70808805  0.81444535  0.27109684     0.79400
O159        O  0.67379306  0.87955535  0.26765430    -0.59000
O160        O  0.70704357  0.90224830  0.28899859    -0.49900
C161        C  0.65199670  0.86662078  0.33854504     0.72100
O162        O  0.65114654  0.84860493  0.31857796    -0.44800
C163        C  0.73956217  0.84537262  0.33686456     0.76800
O164        O  0.68869484  0.81330457  0.28972760    -0.56600
O165        O  0.74054524  0.86561807  0.31917499    -0.46700
O166        O  0.71883709  0.83872901  0.26736029    -0.53100
C167        C  0.68890755  0.90174586  0.26912585     0.87000
O168        O  0.67475081  0.88081457  0.34044295    -0.55000
O169        O  0.71538643  0.83416752  0.34001455    -0.58300
In170      In  0.68776704  0.24927147  0.30297617     1.36900
C171        C  0.70177349  0.29227003  0.26907313     0.79400
O172        O  0.70857998  0.27323835  0.33850090    -0.59000
O173        O  0.73273546  0.24116094  0.31745223    -0.49900
C174        C  0.64428225  0.24419362  0.33838363     0.72100
O175        O  0.64376134  0.26139758  0.31770525    -0.44800
C176        C  0.67971604  0.20487008  0.26942339     0.76800
O177        O  0.68209266  0.29425738  0.28733169    -0.56600
O178        O  0.69731104  0.20436100  0.28975429    -0.46700
O179        O  0.71198519  0.26765194  0.26610036    -0.53100
C180        C  0.73244549  0.26148533  0.33508785     0.87000
O181        O  0.66648228  0.22918407  0.34037217    -0.55000
O182        O  0.66558703  0.22760122  0.26687441    -0.58300
In183      In  0.30599144  0.86364774  0.30794023     1.36900
C184        C  0.26059651  0.85151249  0.33931602     0.79400
O185        O  0.28333093  0.84308452  0.27132415    -0.59000
O186        O  0.31358023  0.81831822  0.29416870    -0.49900
C187        C  0.31430155  0.90680526  0.27278767     0.72100
O188        O  0.29668944  0.90825084  0.29308914    -0.44800
C189        C  0.34886335  0.86963564  0.34391138     0.76800
O190        O  0.25988205  0.87006640  0.31986289    -0.56600
O191        O  0.34969390  0.85212220  0.32350026    -0.46700
O192        O  0.28497427  0.84176715  0.34473034    -0.53100
C193        C  0.29438417  0.81899805  0.27533130     0.87000
O194        O  0.32839044  0.88398255  0.27129586    -0.55000
O195        O  0.32666283  0.88476365  0.34530723    -0.58300
In196      In  0.30705992  0.24355426  0.30499800     1.36900
C197        C  0.29536446  0.28814630  0.27248843     0.79400
O198        O  0.32914897  0.22342865  0.26809442    -0.59000
O199        O  0.29543553  0.20033302  0.28827242    -0.49900
C200        C  0.34947087  0.23321432  0.34052160     0.72100
O201        O  0.35135411  0.25189884  0.32124005    -0.44800
C202        C  0.26266345  0.25702512  0.33702146     0.76800
O203        O  0.31433363  0.28913676  0.29158954    -0.56600
O204        O  0.26170385  0.23696189  0.31908673    -0.46700
O205        O  0.28489490  0.26384655  0.26813494    -0.53100
C206        C  0.31375053  0.20137382  0.26855359     0.87000
O207        O  0.32636911  0.21947589  0.34112495    -0.55000
O208        O  0.28695522  0.26779347  0.34075544    -0.58300
In209      In  0.24837607  0.74696444  0.85510258     1.36900
C210        C  0.28047650  0.79212293  0.84448669     0.79400
O211        O  0.28448865  0.72609133  0.87796717    -0.59000
O212        O  0.26338150  0.70255710  0.84525761    -0.49900
C213        C  0.21268842  0.73892528  0.89773471     0.72100
O214        O  0.23266272  0.75693834  0.89911165    -0.44800
C215        C  0.21748640  0.75917035  0.80935822     0.76800
O216        O  0.26033523  0.79281850  0.86232428    -0.56600
O217        O  0.23739206  0.74105638  0.80875724    -0.46700
O218        O  0.28620666  0.76778614  0.83479390    -0.53100
C219        C  0.28301351  0.70338671  0.86366300     0.87000
O220        O  0.21129152  0.72482600  0.87490771    -0.55000
O221        O  0.21144655  0.76850270  0.83374202    -0.58300
In222      In  0.25104149  0.36008559  0.85782942     1.36900
C223        C  0.28221637  0.31443531  0.84601708     0.79400
O224        O  0.21312819  0.33896024  0.83811613    -0.59000
O225        O  0.23791397  0.36670665  0.81225294    -0.49900
C226        C  0.21629572  0.36830944  0.90126111     0.72100
O227        O  0.23614086  0.35013331  0.90214481    -0.44800
C228        C  0.28647427  0.40312704  0.86478661     0.76800
O229        O  0.26315039  0.31427334  0.86499117    -0.56600
O230        O  0.26656640  0.40386534  0.84671101    -0.46700
O231        O  0.28739829  0.33850823  0.83542906    -0.53100
C232        C  0.21799765  0.34865125  0.81363183     0.87000
O233        O  0.21487168  0.38281039  0.87870521    -0.55000
O234        O  0.28782630  0.38079563  0.87965425    -0.58300
In235      In  0.25131449  0.74812023  0.24948950     1.36900
C236        C  0.21880003  0.75999260  0.29413143     0.79400
O237        O  0.28759948  0.76891259  0.27239556    -0.59000
O238        O  0.26383670  0.79394988  0.24303272    -0.49900
C239        C  0.28721392  0.70573066  0.24009316     0.72100
O240        O  0.26780714  0.70410056  0.25870508    -0.44800
C241        C  0.21591430  0.73976506  0.20662791     0.76800
O242        O  0.23851191  0.74165659  0.29531136    -0.56600
O243        O  0.23527562  0.75849045  0.20570022    -0.46700
O244        O  0.21374477  0.76956199  0.26963319    -0.53100
C245        C  0.28260471  0.79324648  0.26231877     0.87000
O246        O  0.28791375  0.72866203  0.22611229    -0.55000
O247        O  0.21503615  0.72507997  0.22911570    -0.58300
In248      In  0.25088291  0.35791002  0.24537659     1.36900
C249        C  0.21736874  0.34627665  0.28937603     0.79400
O250        O  0.21432377  0.37857554  0.22293952    -0.59000
O251        O  0.23773664  0.34652922  0.20073877    -0.49900
C252        C  0.28587409  0.40154361  0.23792967     0.72100
O253        O  0.26560174  0.40241227  0.25563038    -0.44800
C254        C  0.28307459  0.31361156  0.25937455     0.76800
O255        O  0.23563031  0.36605751  0.29019292    -0.56600
O256        O  0.26456045  0.31230776  0.23991017    -0.46700
O257        O  0.21410049  0.33491015  0.26532822    -0.53100
C258        C  0.21717016  0.36389266  0.20061402     0.87000
O259        O  0.28776712  0.37881907  0.22370587    -0.55000
O260        O  0.28727089  0.33814781  0.26935136    -0.58300
In261      In  0.80420811  0.30135108  0.74622311     1.36900
C262        C  0.79270559  0.33414448  0.79079874     0.79400
O263        O  0.82452231  0.33815666  0.72389940    -0.59000
O264        O  0.79125130  0.31554616  0.70255403    -0.49900
C265        C  0.84702053  0.26619318  0.73618563     0.72100
O266        O  0.84948753  0.28702713  0.75307854    -0.44800
C267        C  0.76053105  0.26878993  0.76050016     0.76800
O268        O  0.81186388  0.31521860  0.79156802    -0.56600
O269        O  0.75914893  0.28642714  0.74022753    -0.46700
O270        O  0.78197893  0.33836086  0.76661442    -0.53100
C271        C  0.80883136  0.33593503  0.70218204     0.87000
O272        O  0.82313699  0.26383560  0.72414657    -0.55000
O273        O  0.78487901  0.26579834  0.77136150    -0.58300
In274      In  0.19084584  0.30317092  0.74509088     1.36900
C275        C  0.20474294  0.33625618  0.78838277     0.79400
O276        O  0.21052593  0.26686416  0.76869339    -0.59000
O277        O  0.23600450  0.28824629  0.73791168    -0.49900
C278        C  0.14780725  0.26760546  0.73854881     0.72100
O279        O  0.14770844  0.28682035  0.75740487    -0.44800
C280        C  0.18114674  0.33836986  0.70250681     0.76800
O281        O  0.18425228  0.31881956  0.78978950    -0.56600
O282        O  0.19969945  0.31890433  0.70087314    -0.46700
O283        O  0.21572252  0.33905054  0.76409018    -0.53100
C284        C  0.23478480  0.27006336  0.75772965     0.87000
O285        O  0.16945451  0.26710709  0.72258225    -0.55000
O286        O  0.16730929  0.33939697  0.72550929    -0.58300
In287      In  0.80400893  0.30527727  0.35767045     1.36900
C288        C  0.75844787  0.27370786  0.34708235     0.79400
O289        O  0.78196353  0.34192008  0.33657399    -0.59000
O290        O  0.81079815  0.31720358  0.31182590    -0.49900
C291        C  0.81286381  0.34186858  0.39925244     0.72100
O292        O  0.79435240  0.32240046  0.40111358    -0.44800
C293        C  0.84653082  0.26938400  0.36624341     0.76800
O294        O  0.75812420  0.29354756  0.36524484    -0.56600
O295        O  0.84739926  0.28807618  0.34690386    -0.46700
O296        O  0.78260898  0.26801030  0.33694424    -0.53100
C297        C  0.79214258  0.33660697  0.31237414     0.87000
O298        O  0.82733153  0.34208125  0.37661188    -0.55000
O299        O  0.82443193  0.26961563  0.38155774    -0.58300
In300      In  0.19217092  0.30246451  0.36023710     1.36900
C301        C  0.20439134  0.33413334  0.31499913     0.79400
O302        O  0.16984729  0.33849365  0.38183135    -0.59000
O303        O  0.20338303  0.31747380  0.40426172    -0.49900
C304        C  0.14836524  0.26774674  0.36707060     0.72100
O305        O  0.14785761  0.28795737  0.34931816    -0.44800
C306        C  0.23706036  0.26999517  0.34915228     0.76800
O307        O  0.18645208  0.31410984  0.31407279    -0.56600
O308        O  0.23802440  0.29004720  0.36705379    -0.46700
O309        O  0.21338038  0.34005748  0.33952465    -0.53100
C310        C  0.18502722  0.33716050  0.40395964     0.87000
O311        O  0.17071972  0.26594435  0.38188588    -0.55000
O312        O  0.21263888  0.26464489  0.33948324    -0.58300
C313        C  0.52514612  0.57113520  0.87855483     0.04100
C314        C  0.52553283  0.54111755  0.87849915     0.04100
C315        C  0.49977446  0.52603571  0.87751206    -0.16400
C316        C  0.47369401  0.54058837  0.87674182     0.04100
C317        C  0.47327327  0.57059444  0.87693899     0.04100
C318        C  0.49904385  0.58570770  0.87775754    -0.16400
H319        H  0.49879049  0.60883008  0.87782146     0.06100
H320        H  0.50001830  0.50290887  0.87738537     0.06100
C321        C  0.52513217  0.56870409  0.21391144     0.04100
C322        C  0.52549611  0.53870546  0.21279747     0.04100
C323        C  0.49973390  0.52349536  0.21341812    -0.16400
C324        C  0.47359655  0.53792455  0.21509855     0.04100
C325        C  0.47327924  0.56795381  0.21567241     0.04100
C326        C  0.49901729  0.58312216  0.21508775    -0.16400
H327        H  0.49873374  0.60622271  0.21596286     0.06100
H328        H  0.50005126  0.50036435  0.21298593     0.06100
C329        C  0.52059553  0.88167119  0.58051843     0.04100
C330        C  0.49057671  0.88120612  0.58090386     0.04100
C331        C  0.47542683  0.88000504  0.55522240    -0.16400
C332        C  0.48990099  0.87925812  0.52914128     0.04100
C333        C  0.51991899  0.87998772  0.52872209     0.04100
C334        C  0.53509497  0.88120624  0.55441250    -0.16400
H335        H  0.55823132  0.88153703  0.55409584     0.06100
H336        H  0.45230282  0.87947729  0.55554031     0.06100
C337        C  0.48471659  0.21262324  0.58098272     0.04100
C338        C  0.51461171  0.21542058  0.58083565     0.04100
C339        C  0.52915831  0.21759945  0.55484239    -0.16400
C340        C  0.51414080  0.21720153  0.52903099     0.04100
C341        C  0.48424789  0.21426012  0.52921103     0.04100
C342        C  0.46974403  0.21189644  0.55518081    -0.16400
H343        H  0.44668470  0.20996781  0.55533179     0.06100
H344        H  0.55216423  0.22001431  0.55471498     0.06100
C345        C  0.82463783  0.57727969  0.57188479     0.04100
C346        C  0.82734910  0.57859373  0.54205588     0.04100
C347        C  0.82795144  0.55336887  0.52614616    -0.16400
C348        C  0.82540452  0.52689416  0.53963905     0.04100
C349        C  0.82217728  0.52555585  0.56941238     0.04100
C350        C  0.82204634  0.55077656  0.58540161    -0.16400
H351        H  0.81967696  0.54979287  0.60836661     0.06100
H352        H  0.83004799  0.55435777  0.50315096     0.06100
C353        C  0.16275912  0.57783043  0.53772141     0.04100
C354        C  0.15985344  0.57804709  0.56756512     0.04100
C355        C  0.15891413  0.55223285  0.58252408    -0.16400
C356        C  0.16109855  0.52623561  0.56798760     0.04100
C357        C  0.16412292  0.52603267  0.53816419     0.04100
C358        C  0.16479815  0.55183015  0.52319416    -0.16400
H359        H  0.16724639  0.55168269  0.50022827     0.06100
H360        H  0.15691071  0.55238251  0.60555047     0.06100
C361        C  0.01165530  0.02863479  0.38760921     0.04100
C362        C  0.98163636  0.02843473  0.38860591     0.04100
C363        C  0.96660245  0.05428239  0.38953103    -0.16400
C364        C  0.98120171  0.08038706  0.38894503     0.04100
C365        C  0.01122165  0.08057036  0.38751057     0.04100
C366        C  0.02624532  0.05471592  0.38709171    -0.16400
H367        H  0.04934396  0.05489760  0.38594998     0.06100
H368        H  0.94347526  0.05408335  0.39019110     0.06100
C369        C  0.01315448  0.02714941  0.71781807     0.04100
C370        C  0.98330672  0.02710925  0.71465204     0.04100
C371        C  0.96847860  0.05298004  0.71344657    -0.16400
C372        C  0.98309609  0.07890585  0.71588320     0.04100
C373        C  0.01290003  0.07897058  0.71954401     0.04100
C374        C  0.02779588  0.05308163  0.72023937    -0.16400
H375        H  0.05076689  0.05310009  0.72301618     0.06100
H376        H  0.94546889  0.05292744  0.71112315     0.06100
C377        C  0.32370996  0.06621485  0.02790159     0.04100
C378        C  0.32398062  0.03619865  0.02750089     0.04100
C379        C  0.32416295  0.02103647  0.05322334    -0.16400
C380        C  0.32399543  0.03554862  0.07933342     0.04100
C381        C  0.32381454  0.06557401  0.07968695     0.04100
C382        C  0.32369556  0.08070770  0.05398061    -0.16400
H383        H  0.32341844  0.10383125  0.05427669     0.06100
H384        H  0.32425282  0.99790995  0.05291818     0.06100
C385        C  0.67064314  0.06868716  0.03063997     0.04100
C386        C  0.67243144  0.03873974  0.02996937     0.04100
C387        C  0.67533967  0.02350467  0.05544342    -0.16400
C388        C  0.67674044  0.03790688  0.08153492     0.04100
C389        C  0.67537741  0.06786738  0.08214936     0.04100
C390        C  0.67221430  0.08308414  0.05671109    -0.16400
H391        H  0.67107597  0.10618702  0.05719715     0.06100
H392        H  0.67659894  0.00041367  0.05495446     0.06100
C393        C  0.97533104  0.37719522  0.03797896     0.04100
C394        C  0.97623909  0.37690688  0.06796494     0.04100
C395        C  0.00262475  0.37643719  0.08200744    -0.16400
C396        C  0.02812981  0.37644490  0.06642539     0.04100
C397        C  0.02719931  0.37697853  0.03645333     0.04100
C398        C  0.00083132  0.37726802  0.02242563    -0.16400
H399        H  0.00015274  0.37758386  0.99934074     0.06100
H400        H  0.00331262  0.37610568  0.10511329     0.06100
C401        C  0.97686107  0.72065229  0.04065354     0.04100
C402        C  0.97802344  0.72093522  0.07059556     0.04100
C403        C  0.00446322  0.72101297  0.08445867    -0.16400
C404        C  0.02982400  0.72088204  0.06870100     0.04100
C405        C  0.02865698  0.72046927  0.03873748     0.04100
C406        C  0.00219731  0.72031300  0.02489077    -0.16400
H407        H  0.00132445  0.72017594  0.00179960     0.06100
H408        H  0.00529990  0.72140143  0.10755636     0.06100
C409        C  0.09074322  0.20334340  0.37364460     0.18900
C410        C  0.09886509  0.17793239  0.36019798    -0.10200
C411        C  0.08217226  0.15342135  0.36318294    -0.11100
C412        C  0.05725986  0.15417218  0.37963721     0.20400
C413        C  0.04896193  0.17964398  0.39288697    -0.13100
C414        C  0.06570084  0.20418946  0.38992022    -0.11400
C415        C  0.04047517  0.12870789  0.38308555     0.01400
C416        C  0.02698226  0.10695319  0.38550177    -0.31400
C417        C  0.10876495  0.22809594  0.37144492     0.02800
C418        C  0.12573003  0.24732040  0.36955318    -0.33100
H419        H  0.11824408  0.17700723  0.34763594     0.13800
H420        H  0.08879439  0.13384365  0.35283368     0.13700
H421        H  0.02972941  0.18045896  0.40563176     0.13500
H422        H  0.05927822  0.22368895  0.40048574     0.12500
C423        C  0.17674259  0.40201426  0.46061303     0.18900
C424        C  0.18804551  0.40302891  0.48822908    -0.10200
C425        C  0.18548125  0.42793498  0.50448315    -0.11100
C426        C  0.17165285  0.45186639  0.49313076     0.20400
C427        C  0.16031091  0.45077696  0.46557423    -0.13100
C428        C  0.16285730  0.42593057  0.44936396    -0.11400
C429        C  0.16920990  0.47766301  0.50950679     0.01400
C430        C  0.16691513  0.49963905  0.52260877    -0.31400
C431        C  0.17988375  0.37689676  0.44329158     0.02800
C432        C  0.18225682  0.35755188  0.42655461    -0.33100
H433        H  0.19893405  0.38470091  0.49708748     0.13800
H434        H  0.19436691  0.42858409  0.52577755     0.13700
H435        H  0.14961810  0.46916635  0.45658745     0.13500
H436        H  0.15415426  0.42541946  0.42799577     0.12500
C437        C  0.93482174  0.15422124  0.38483801     0.18900
C438        C  0.94825162  0.18059683  0.38051381    -0.10200
C439        C  0.93188816  0.20532588  0.37689155    -0.11100
C440        C  0.90204123  0.20375951  0.37759166     0.20400
C441        C  0.88866948  0.17742919  0.38210951    -0.13100
C442        C  0.90498914  0.15274933  0.38572026    -0.11400
C443        C  0.88488395  0.22889881  0.37344828     0.01400
C444        C  0.86852207  0.24844769  0.37006167    -0.31400
C445        C  0.95148305  0.12851974  0.38748669     0.02800
C446        C  0.96502284  0.10665767  0.38869375    -0.33100
H447        H  0.97129994  0.18200089  0.37971809     0.13800
H448        H  0.94246117  0.22556463  0.37338941     0.13700
H449        H  0.86560100  0.17595549  0.38266636     0.13500
H450        H  0.89435102  0.13251366  0.38896270     0.12500
C451        C  0.82458995  0.45502997  0.49075578     0.18900
C452        C  0.80780850  0.43173824  0.49898109    -0.10200
C453        C  0.80632440  0.40756653  0.48162422    -0.11100
C454        C  0.82166447  0.40663061  0.45604250     0.20400
C455        C  0.83862578  0.42984570  0.44794109    -0.13100
C456        C  0.84009253  0.45401551  0.46528163    -0.11400
C457        C  0.81921954  0.38235280  0.43756364     0.01400
C458        C  0.81661537  0.36304932  0.42087202    -0.31400
C459        C  0.82541675  0.48018564  0.50813693     0.02800
C460        C  0.82562512  0.50142706  0.52250865    -0.33100
H461        H  0.79570961  0.43238115  0.51863807     0.13800
H462        H  0.79304172  0.38977259  0.48798220     0.13700
H463        H  0.85045768  0.42937001  0.42811688     0.13500
H464        H  0.85307722  0.47196857  0.45872976     0.12500
C465        C  0.16306648  0.45196650  0.61315382     0.18900
C466        C  0.14966031  0.45009045  0.63972889    -0.10200
C467        C  0.15233844  0.42531889  0.65600990    -0.11100
C468        C  0.16842884  0.40232713  0.64576977     0.20400
C469        C  0.18146748  0.40400808  0.61898193    -0.13100
C470        C  0.17877480  0.42880533  0.60267430    -0.11400
C471        C  0.17266917  0.37774520  0.66350878     0.01400
C472        C  0.17654361  0.35870109  0.68024533    -0.31400
C473        C  0.16152756  0.47800354  0.59714622     0.02800
C474        C  0.16094940  0.50003843  0.58401860    -0.33100
H475        H  0.13752486  0.46791396  0.64803575     0.13800
H476        H  0.14228392  0.42426811  0.67676463     0.13700
H477        H  0.19406142  0.38638672  0.61094161     0.13500
H478        H  0.18926910  0.43009434  0.58216527     0.12500
C479        C  0.09042318  0.20284897  0.73381677     0.18900
C480        C  0.09885377  0.17795998  0.74798245    -0.10200
C481        C  0.08236749  0.15323016  0.74587959    -0.11100
C482        C  0.05735318  0.15325444  0.72959046     0.20400
C483        C  0.04857840  0.17829472  0.71586351    -0.13100
C484        C  0.06511461  0.20306254  0.71794472    -0.11400
C485        C  0.04131321  0.12732773  0.72622328     0.01400
C486        C  0.02842807  0.10530438  0.72313341    -0.31400
C487        C  0.10847133  0.22763767  0.73483405     0.02800
C488        C  0.12546655  0.24687228  0.73613566    -0.33100
H489        H  0.11840774  0.17755911  0.76028865     0.13800
H490        H  0.08933834  0.13399705  0.75658898     0.13700
H491        H  0.02923674  0.17853750  0.70324598     0.13500
H492        H  0.05841441  0.22218485  0.70688168     0.12500
C493        C  0.93674053  0.15253280  0.71763628     0.18900
C494        C  0.90778108  0.15190051  0.71039035    -0.10200
C495        C  0.89116613  0.17646727  0.71321554    -0.11100
C496        C  0.90343456  0.20178185  0.72331592     0.20400
C497        C  0.93248570  0.20251861  0.73023760    -0.13100
C498        C  0.94912692  0.17792457  0.72739055    -0.11400
C499        C  0.88583303  0.22653868  0.72753874     0.01400
C500        C  0.86929400  0.24579862  0.73148345    -0.31400
C501        C  0.95344512  0.12690085  0.71599658     0.02800
C502        C  0.96703159  0.10511643  0.71550864    -0.33100
H503        H  0.89797849  0.13233011  0.70290528     0.13800
H504        H  0.86868654  0.17563685  0.70789207     0.13700
H505        H  0.94214668  0.22194260  0.73815081     0.13500
H506        H  0.97149563  0.17859331  0.73311202     0.12500
C507        C  0.81316140  0.44966635  0.61120491     0.18900
C508        C  0.83093343  0.42656668  0.60457829    -0.10200
C509        C  0.82962270  0.40156765  0.62079572    -0.11100
C510        C  0.81048195  0.39959617  0.64363211     0.20400
C511        C  0.79225105  0.42244437  0.64979000    -0.13100
C512        C  0.79358016  0.44741565  0.63361973    -0.11400
C513        C  0.81049705  0.37497071  0.66188584     0.01400
C514        C  0.81012138  0.35607039  0.67925607    -0.31400
C515        C  0.81590412  0.47610647  0.59592793     0.02800
C516        C  0.81870076  0.49859806  0.58383309    -0.33100
H517        H  0.84615067  0.42809970  0.58728992     0.13800
H518        H  0.84388135  0.38406785  0.61590862     0.13700
H519        H  0.77744197  0.42117130  0.66746811     0.13500
H520        H  0.77975678  0.46514485  0.63895264     0.12500
C521        C  0.39940567  0.49233844  0.22208033     0.18900
C522        C  0.38787230  0.47793113  0.19859680    -0.10200
C523        C  0.36300648  0.46170505  0.20167646    -0.11100
C524        C  0.34950750  0.45980531  0.22824589     0.20400
C525        C  0.36083591  0.47449610  0.25165754    -0.13100
C526        C  0.38570438  0.49073806  0.24857742    -0.11400
C527        C  0.32509545  0.44145450  0.23179593     0.01400
C528        C  0.30613662  0.42428911  0.23468147    -0.31400
C529        C  0.42551307  0.50832616  0.21911382     0.02800
C530        C  0.44745176  0.52164152  0.21696382    -0.33100
H531        H  0.39826709  0.47897489  0.17802010     0.13800
H532        H  0.35455319  0.45029803  0.18345560     0.13700
H533        H  0.35069919  0.47304950  0.27234738     0.13500
H534        H  0.39441457  0.50175637  0.26689755     0.12500
C535        C  0.10404109  0.37450006  0.10933635     0.18900
C536        C  0.12478244  0.35400353  0.10273239    -0.10200
C537        C  0.14986272  0.35234661  0.11884796    -0.11100
C538        C  0.15430301  0.37124741  0.14156110     0.20400
C539        C  0.13380072  0.39207029  0.14775805    -0.13100
C540        C  0.10875503  0.39369947  0.13170009    -0.11400
C541        C  0.17887889  0.36837755  0.15973553     0.01400
C542        C  0.19757445  0.36623255  0.17724406    -0.31400
C543        C  0.07753144  0.37530931  0.09387542     0.02800
C544        C  0.05501167  0.37588373  0.08146869    -0.33100
H545        H  0.12135656  0.33904655  0.08547072     0.13800
H546        H  0.16549001  0.33606157  0.11394601     0.13700
H547        H  0.13693548  0.40669255  0.16535888     0.13500
H548        H  0.09287404  0.40961228  0.13701444     0.12500
C549        C  0.39956855  0.61396815  0.22162500     0.18900
C550        C  0.39318649  0.63478054  0.20120763    -0.10200
C551        C  0.36883371  0.65172451  0.20426123    -0.11100
C552        C  0.35076486  0.64792393  0.22774387     0.20400
C553        C  0.35700881  0.62690789  0.24800063    -0.13100
C554        C  0.38135669  0.60995704  0.24493617    -0.11400
C555        C  0.32667412  0.66651843  0.23177346     0.01400
C556        C  0.30775808  0.68351816  0.23553837    -0.31400
C557        C  0.42513953  0.59723969  0.21907576     0.02800
C558        C  0.44688800  0.58366515  0.21737797    -0.33100
H559        H  0.40719301  0.63811365  0.18313009     0.13800
H560        H  0.36430705  0.66802354  0.18854549     0.13700
H561        H  0.34330080  0.62389859  0.26630445     0.13500
H562        H  0.38615424  0.59397318  0.26087917     0.12500
C563        C  0.15323836  0.72899092  0.14763507     0.18900
C564        C  0.14867594  0.74845565  0.12546800    -0.10200
C565        C  0.12443813  0.74603585  0.10824433    -0.11100
C566        C  0.10466849  0.72416728  0.11316071     0.20400
C567        C  0.10949715  0.70442465  0.13500421    -0.13100
C568        C  0.13371977  0.70683121  0.15220085    -0.11400
C569        C  0.07887411  0.72262179  0.09663646     0.01400
C570        C  0.05671294  0.72164198  0.08365857    -0.31400
C571        C  0.17702748  0.73258040  0.16667521     0.02800
C572        C  0.19563404  0.73583376  0.18409379    -0.33100
H573        H  0.16355444  0.76574163  0.12183535     0.13800
H574        H  0.12087699  0.76145398  0.09145113     0.13700
H575        H  0.09430715  0.68748180  0.13903472     0.13500
H576        H  0.13696180  0.69173303  0.16936515     0.12500
C577        C  0.10084561  0.37730571  0.98993127     0.18900
C578        C  0.10100665  0.38796259  0.96208060    -0.10200
C579        C  0.12605317  0.38716010  0.94595856    -0.11100
C580        C  0.15106486  0.37571059  0.95760852     0.20400
C581        C  0.15099515  0.36529043  0.98556937    -0.13100
C582        C  0.12591789  0.36611629  0.00172412    -0.11400
C583        C  0.17628819  0.37367467  0.94027111     0.01400
C584        C  0.19576584  0.37149361  0.92366515    -0.31400
C585        C  0.07485553  0.37741892  0.00619388     0.02800
C586        C  0.05305460  0.37726102  0.01978529    -0.33100
H587        H  0.08173970  0.39663602  0.95275144     0.13800
H588        H  0.12584124  0.39514869  0.92432241     0.13700
H589        H  0.17018143  0.35627124  0.99474222     0.13500
H590        H  0.12599125  0.35781608  0.02325897     0.12500
C591        C  0.35120278  0.46011838  0.87087983     0.18900
C592        C  0.34933381  0.48858290  0.87975855    -0.10200
C593        C  0.37395580  0.50541008  0.88106572    -0.11100
C594        C  0.40043145  0.49375531  0.87352876     0.20400
C595        C  0.40223377  0.46532351  0.86466084    -0.13100
C596        C  0.37767936  0.44854884  0.86334571    -0.11400
C597        C  0.42585542  0.51076701  0.87488908     0.01400
C598        C  0.44760463  0.52437586  0.87579408    -0.31400
C599        C  0.32621196  0.44245957  0.86946663     0.02800
C600        C  0.30696924  0.42556956  0.86762042    -0.33100
H601        H  0.32893882  0.49770688  0.88565475     0.13800
H602        H  0.37237370  0.52741919  0.88794483     0.13700
H603        H  0.42259523  0.45613919  0.85879442     0.13500
H604        H  0.37933349  0.42655872  0.85647984     0.12500
C605        C  0.39728057  0.61348116  0.87514202     0.18900
C606        C  0.38747863  0.62820077  0.89921636    -0.10200
C607        C  0.36219701  0.64400139  0.89785423    -0.11100
C608        C  0.34657431  0.64510545  0.87242734     0.20400
C609        C  0.35606388  0.62989291  0.84855163    -0.13100
C610        C  0.38133056  0.61409549  0.84991225    -0.11400
C611        C  0.32205450  0.66345330  0.87016345     0.01400
C612        C  0.30313544  0.68065439  0.86746179    -0.31400
C613        C  0.42408302  0.59849387  0.87602022     0.02800
C614        C  0.44662370  0.58609222  0.87645013    -0.33100
H615        H  0.39962179  0.62787625  0.91884299     0.13800
H616        H  0.35516484  0.65582625  0.91641068     0.13700
H617        H  0.34426141  0.63074296  0.82873223     0.13500
H618        H  0.38868390  0.60280078  0.83117273     0.12500
C619        C  0.10034392  0.72383067  0.98967336     0.18900
C620        C  0.09735855  0.73128395  0.96096575    -0.10200
C621        C  0.12145735  0.73390371  0.94369895    -0.11100
C622        C  0.14865072  0.72909756  0.95505843     0.20400
C623        C  0.15167146  0.72147844  0.98375198    -0.13100
C624        C  0.12751645  0.71886578  0.00106236    -0.11400
C625        C  0.17323436  0.73217450  0.93705216     0.01400
C626        C  0.19227331  0.73518354  0.92010892    -0.31400
C627        C  0.07550131  0.72179722  0.00742936     0.02800
C628        C  0.05428168  0.72083398  0.02182221    -0.33100
H629        H  0.07642424  0.73520763  0.95198288     0.13800
H630        H  0.11891170  0.73978416  0.92152134     0.13700
H631        H  0.17260755  0.71769035  0.99271980     0.13500
H632        H  0.13000692  0.71313794  0.02327160     0.12500
C633        C  0.31995679  0.14554459  0.20262751     0.18900
C634        C  0.31071659  0.11715112  0.20346165    -0.10200
C635        C  0.31192801  0.10033053  0.17887040    -0.11100
C636        C  0.32235900  0.11187074  0.15338574     0.20400
C637        C  0.33170781  0.14022111  0.15261079    -0.13100
C638        C  0.33049886  0.15701932  0.17716870    -0.11400
C639        C  0.32307028  0.09488028  0.12789561     0.01400
C640        C  0.32349445  0.08129036  0.10611352    -0.31400
C641        C  0.31805536  0.16323564  0.22757706     0.02800
C642        C  0.31624626  0.17962949  0.24725315    -0.33100
H643        H  0.30242845  0.10811642  0.22301365     0.13800
H644        H  0.30458521  0.07846079  0.17967242     0.13700
H645        H  0.33975495  0.14937055  0.13299840     0.13500
H646        H  0.33760006  0.17900129  0.17626669     0.12500
C647        C  0.40490278  0.22167251  0.40598169     0.18900
C648        C  0.39151223  0.21901357  0.43252830    -0.10200
C649        C  0.40783388  0.21665923  0.45731669    -0.11100
C650        C  0.43765856  0.21693395  0.45569550     0.20400
C651        C  0.45110394  0.21937930  0.42913669    -0.13100
C652        C  0.43474686  0.22174295  0.40430079    -0.11400
C653        C  0.45435524  0.21527065  0.48135074     0.01400
C654        C  0.46801286  0.21446915  0.50308577    -0.31400
C655        C  0.38778406  0.22506906  0.38076497     0.02800
C656        C  0.37145302  0.22855350  0.36124693    -0.33100
H657        H  0.36843778  0.21900706  0.43408147     0.13800
H658        H  0.39721733  0.21484704  0.47773185     0.13700
H659        H  0.47415578  0.21967475  0.42766531     0.13500
H660        H  0.44532041  0.22385292  0.38390266     0.12500
C661        C  0.32244470  0.99096709  0.15413055     0.18900
C662        C  0.30968885  0.00318405  0.17823075    -0.10200
C663        C  0.30883086  0.98811392  0.20394010    -0.11100
C664        C  0.32074973  0.96078194  0.20562889     0.20400
C665        C  0.33354641  0.94861636  0.18153610    -0.13100
C666        C  0.33440853  0.96367056  0.15586163    -0.11400
C667        C  0.31901013  0.94459489  0.23160581    -0.01000
C668        C  0.31716759  0.92875704  0.25173242    -0.31400
C669        C  0.32315495  0.00634658  0.12762159     0.02800
C670        C  0.32366244  0.01937313  0.10549420    -0.33100
H671        H  0.30029649  0.02423988  0.17709198     0.13800
H672        H  0.29871625  0.99765520  0.22238687     0.13700
H673        H  0.34266334  0.92741607  0.18255425     0.13500
H674        H  0.34426801  0.95399226  0.13736636     0.12500
C675        C  0.40729083  0.87358853  0.40794772     0.18900
C676        C  0.42026293  0.84861389  0.41797801    -0.10200
C677        C  0.43778493  0.84954070  0.44208776    -0.11100
C678        C  0.44235193  0.87543660  0.45627684     0.20400
C679        C  0.42953801  0.90041598  0.44612466    -0.13100
C680        C  0.41203597  0.89949281  0.42203421    -0.11400
C681        C  0.45962148  0.87638391  0.48158964     0.01400
C682        C  0.47355860  0.87760856  0.50312998    -0.31400
C683        C  0.38824714  0.87251052  0.38392519     0.02800
C684        C  0.37106179  0.87149874  0.36485418    -0.33100
H685        H  0.41660431  0.82842685  0.40734924     0.13800
H686        H  0.44754040  0.83007165  0.44980065     0.13700
H687        H  0.43286960  0.92052564  0.45697541     0.13500
H688        H  0.40198722  0.91888914  0.41457595     0.12500
C689        C  0.55720478  0.22801798  0.45409628     0.18900
C690        C  0.56534073  0.25551725  0.44573754    -0.10200
C691        C  0.58059009  0.25954176  0.42043818    -0.11100
C692        C  0.58770584  0.23607722  0.40337097     0.20400
C693        C  0.57930789  0.20861940  0.41159480    -0.13100
C694        C  0.56406542  0.20459708  0.43688648    -0.11400
C695        C  0.60514655  0.23987814  0.37842642     0.01400
C696        C  0.62178511  0.24225977  0.35899600    -0.31400
C697        C  0.54218915  0.22381587  0.48049560     0.02800
C698        C  0.52962461  0.22056107  0.50266194    -0.33100
H699        H  0.56017181  0.27376910  0.45890582     0.13800
H700        H  0.58717164  0.28083819  0.41441698     0.13700
H701        H  0.58490405  0.19030386  0.39868167     0.13500
H702        H  0.55791177  0.18324291  0.44316211     0.12500
C703        C  0.67796169  0.11360424  0.15602681     0.18900
C704        C  0.67793869  0.14336312  0.15390849    -0.10200
C705        C  0.67719799  0.16006540  0.17850853    -0.11100
C706        C  0.67648928  0.14711050  0.20536765     0.20400
C707        C  0.67665784  0.11731188  0.20755523    -0.13100
C708        C  0.67738112  0.10055664  0.18287703    -0.11400
C709        C  0.67618404  0.16474002  0.23041585     0.01400
C710        C  0.67702697  0.18188464  0.24950066    -0.31400
C711        C  0.67786345  0.09666912  0.13053447     0.02800
C712        C  0.67700187  0.08336245  0.10861766    -0.33100
H713        H  0.67836244  0.15363804  0.13325263     0.13800
H714        H  0.67718114  0.18308441  0.17659433     0.13700
H715        H  0.67622349  0.10708838  0.22823955     0.13500
H716        H  0.67736888  0.07752423  0.18470192     0.12500
C717        C  0.56327857  0.87751356  0.45328404     0.18900
C718        C  0.58213602  0.89954529  0.44615063    -0.10200
C719        C  0.59769036  0.89822609  0.42079136    -0.11100
C720        C  0.59442803  0.87488823  0.40244939     0.20400
C721        C  0.57528106  0.85303122  0.40937633    -0.13100
C722        C  0.55969958  0.85435705  0.43474737    -0.11400
C723        C  0.61221454  0.87249648  0.37763850     0.01400
C724        C  0.62924288  0.87005075  0.35859699    -0.31400
C725        C  0.54805733  0.87844365  0.47985166     0.02800
C726        C  0.53543614  0.87920013  0.50219560    -0.33100
H727        H  0.58508210  0.91751684  0.46034764     0.13800
H728        H  0.61262009  0.91512398  0.41572993     0.13700
H729        H  0.57278102  0.83477359  0.39543094     0.13500
H730        H  0.54518199  0.83719367  0.44008421     0.12500
C731        C  0.68259839  0.99213919  0.15517368     0.18900
C732        C  0.66309267  0.99715786  0.17723818    -0.10200
C733        C  0.66409145  0.98065750  0.20202316    -0.11100
C734        C  0.68465313  0.95917969  0.20478931     0.20400
C735        C  0.70432695  0.95440489  0.18284630    -0.13100
C736        C  0.70331088  0.97085494  0.15808870    -0.11400
C737        C  0.68512437  0.94120401  0.22953064     0.01400
C738        C  0.68638988  0.92422971  0.24869950    -0.31400
C739        C  0.68098003  0.00833569  0.12928384     0.02800
C740        C  0.67929495  0.02165486  0.10744267    -0.33100
H741        H  0.64698764  0.01358119  0.17514658     0.13800
H742        H  0.64870060  0.98442274  0.21883840     0.13700
H743        H  0.72022781  0.93775244  0.18475585     0.13500
H744        H  0.71845688  0.96679603  0.14113803     0.12500
C745        C  0.32065027  0.11177184  0.95379283     0.18900
C746        C  0.33304588  0.13888987  0.95224331    -0.10200
C747        C  0.33101911  0.15479286  0.92716637    -0.11100
C748        C  0.31660221  0.14367617  0.90349928     0.20400
C749        C  0.30435944  0.11645490  0.90494851    -0.13100
C750        C  0.30641113  0.10051197  0.93006465    -0.11400
C751        C  0.31382689  0.16076811  0.87820399     0.01400
C752        C  0.31186082  0.17728144  0.85864171    -0.31400
C753        C  0.32213844  0.09576156  0.97987108     0.02800
C754        C  0.32304936  0.08246021  0.00180772    -0.33100
H755        H  0.34407743  0.14781584  0.97046511     0.13800
H756        H  0.34047417  0.17585581  0.92630343     0.13700
H757        H  0.29308132  0.10769055  0.88682204     0.13500
H758        H  0.29674050  0.07955068  0.93106445     0.12500
C759        C  0.43769966  0.21439347  0.65407806     0.18900
C760        C  0.40848829  0.21992986  0.65134033    -0.10200
C761        C  0.39152998  0.22299370  0.67560536    -0.11100
C762        C  0.40368801  0.22056162  0.70274481     0.20400
C763        C  0.43288618  0.21484231  0.70553362    -0.13100
C764        C  0.44987999  0.21176852  0.68120975    -0.11400
C765        C  0.38602586  0.22425721  0.72751373     0.01400
C766        C  0.36936716  0.22784370  0.74672145    -0.31400
C767        C  0.45511516  0.21226430  0.62896925     0.02800
C768        C  0.46888234  0.21172495  0.60730945    -0.33100
H769        H  0.39888293  0.22208978  0.63046233     0.13800
H770        H  0.36897177  0.22742922  0.67321141     0.13700
H771        H  0.44248995  0.21293242  0.72642174     0.13500
H772        H  0.47246675  0.20755894  0.68354784     0.12500
C773        C  0.32190364  0.99333045  0.95169767     0.18900
C774        C  0.29569378  0.98938822  0.93791537    -0.10200
C775        C  0.29438109  0.97390070  0.91248383    -0.11100
C776        C  0.31928134  0.96234224  0.90068540     0.20400
C777        C  0.34555840  0.96667652  0.91423367    -0.13100
C778        C  0.34686926  0.98216082  0.93967496    -0.11400
C779        C  0.31760174  0.94452306  0.87576941     0.01400
C780        C  0.31574474  0.92775529  0.85638668    -0.31400
C781        C  0.32305156  0.00826470  0.97845208     0.02800
C782        C  0.32366685  0.02070370  0.00092109    -0.33100
H783        H  0.27625581  0.99793057  0.94703153     0.13800
H784        H  0.27391939  0.97052041  0.90229614     0.13700
H785        H  0.36491666  0.95767978  0.90540498     0.13500
H786        H  0.36724557  0.98507837  0.95015878     0.12500
C787        C  0.44372333  0.88171952  0.65425108     0.18900
C788        C  0.41747634  0.89596396  0.65412089    -0.10200
C789        C  0.39961537  0.89463098  0.67792197    -0.11100
C790        C  0.40791636  0.87905568  0.70198816     0.20400
C791        C  0.43438381  0.86517642  0.70231113    -0.13100
C792        C  0.45227791  0.86652842  0.67848100    -0.11400
C793        C  0.38868940  0.87640051  0.72574913     0.01400
C794        C  0.37124432  0.87380783  0.74443925    -0.31400
C795        C  0.46122608  0.88185297  0.62909117     0.02800
C796        C  0.47489792  0.88164841  0.60735392    -0.33100
H797        H  0.41064522  0.90772031  0.63547677     0.13800
H798        H  0.37916789  0.90536571  0.67738773     0.13700
H799        H  0.44096788  0.85300065  0.72076663     0.13500
H800        H  0.47253684  0.85540452  0.67878425     0.12500
C801        C  0.59871628  0.87438742  0.70449616     0.18900
C802        C  0.60940356  0.86351219  0.67882758    -0.10200
C803        C  0.59335577  0.86568953  0.65385670    -0.11100
C804        C  0.56652610  0.87876971  0.65439023     0.20400
C805        C  0.55571476  0.88955001  0.68007521    -0.13100
C806        C  0.57181286  0.88739222  0.70510195    -0.11400
C807        C  0.55016480  0.88087209  0.62856219     0.01400
C808        C  0.53680647  0.88176377  0.60664924    -0.31400
C809        C  0.61580555  0.87252142  0.72988864     0.02800
C810        C  0.63209728  0.87055396  0.74964719    -0.33100
H811        H  0.63018735  0.85345605  0.67810484     0.13800
H812        H  0.60187993  0.85722269  0.63413694     0.13700
H813        H  0.53493448  0.89963008  0.68072595     0.13500
H814        H  0.56335990  0.89591656  0.72482625     0.12500
C815        C  0.67340751  0.99404789  0.95535087     0.18900
C816        C  0.66840470  0.00711474  0.92896690    -0.10200
C817        C  0.67022820  0.99112437  0.90383092    -0.11100
C818        C  0.67709060  0.96206839  0.90509379     0.20400
C819        C  0.68189011  0.94905801  0.93150000    -0.13100
C820        C  0.68007502  0.96499098  0.95654853    -0.11400
C821        C  0.67963871  0.94528165  0.87958764     0.01400
C822        C  0.68264584  0.92846981  0.86041542    -0.31400
C823        C  0.67219103  0.01035086  0.98124624     0.02800
C824        C  0.67191522  0.02334283  0.00337925    -0.33100
H825        H  0.66326107  0.02959631  0.92783894     0.13800
H826        H  0.66645549  0.00138548  0.88352025     0.13700
H827        H  0.68719897  0.92659072  0.93270083     0.13500
H828        H  0.68402249  0.95469895  0.97682537     0.12500
C829        C  0.67046871  0.14675567  0.90700337     0.18900
C830        C  0.65696325  0.15799057  0.93115768    -0.10200
C831        C  0.65508853  0.14179509  0.95605870    -0.11100
C832        C  0.66672140  0.11432015  0.95687282     0.20400
C833        C  0.67976002  0.10287543  0.93256988    -0.13100
C834        C  0.68165383  0.11908708  0.90766240    -0.11400
C835        C  0.66656959  0.09836562  0.98295977     0.01400
C836        C  0.66786741  0.08499059  0.00479190    -0.31400
C837        C  0.67401827  0.16425979  0.88215305     0.02800
C838        C  0.67745799  0.18071196  0.86278343    -0.33100
H839        H  0.64836060  0.17942810  0.93088493     0.13800
H840        H  0.64504307  0.15087065  0.97478448     0.13700
H841        H  0.68889418  0.08168397  0.93305861     0.13500
H842        H  0.69224988  0.11026413  0.88914663     0.12500
C843        C  0.59273048  0.22598987  0.70468680     0.18900
C844        C  0.56431753  0.21681882  0.70615512    -0.10200
C845        C  0.54816709  0.21422015  0.68119904    -0.11100
C846        C  0.56039211  0.22078261  0.65474186     0.20400
C847        C  0.58879325  0.22990145  0.65333386    -0.13100
C848        C  0.60490857  0.23247969  0.67822510    -0.11400
C849        C  0.54392003  0.21836052  0.62899341     0.01400
C850        C  0.53059986  0.21679836  0.60708539    -0.31400
C851        C  0.60969506  0.22878701  0.73007364     0.02800
C852        C  0.62605124  0.23172755  0.74965753    -0.33100
H853        H  0.55469489  0.21170522  0.72650855     0.13800
H854        H  0.52622739  0.20712604  0.68252158     0.13700
H855        H  0.59845702  0.23503634  0.63302050     0.13500
H856        H  0.62687118  0.23955249  0.67684615     0.12500
C857        C  0.17631616  0.70149335  0.46000859     0.18900
C858        C  0.18778767  0.67573294  0.45014669    -0.10200
C859        C  0.18446446  0.65081413  0.46609539    -0.11100
C860        C  0.16962522  0.65151859  0.49196763     0.20400
C861        C  0.15811332  0.67725739  0.50185860    -0.13100
C862        C  0.16145633  0.70222316  0.48589475    -0.11400
C863        C  0.16643978  0.62582403  0.50832916     0.01400
C864        C  0.16444044  0.60401530  0.52171706    -0.31400
C865        C  0.17924831  0.72685603  0.44304961     0.02800
C866        C  0.18164192  0.74674944  0.42699845    -0.33100
H867        H  0.19919485  0.67489741  0.43009254     0.13800
H868        H  0.19342230  0.63101533  0.45825351     0.13700
H869        H  0.14653485  0.67799719  0.52181367     0.13500
H870        H  0.15238306  0.72200382  0.49364134     0.12500
C871        C  0.05721903  0.95410277  0.38524172     0.18900
C872        C  0.04490984  0.92878938  0.37509594    -0.10200
C873        C  0.06121457  0.90378291  0.37342760    -0.11100
C874        C  0.08988788  0.90397567  0.38194209     0.20400
C875        C  0.10198165  0.92918893  0.39250935    -0.13100
C876        C  0.08572510  0.95413714  0.39414400    -0.11400
C877        C  0.10749115  0.87890786  0.37876917     0.01400
C878        C  0.12443391  0.85972818  0.37575690    -0.31400
C879        C  0.04093258  0.98018978  0.38605794     0.02800
C880        C  0.02775338  0.00230632  0.38672042    -0.33100
H881        H  0.02286035  0.92847645  0.36818528     0.13800
H882        H  0.05160234  0.88447256  0.36516881     0.13700
H883        H  0.12411424  0.92966187  0.39910279     0.13500
H884        H  0.09548488  0.97354295  0.40204075     0.12500
C885        C  0.16269828  0.65303368  0.61155064     0.18900
C886        C  0.16473497  0.65246270  0.64128504    -0.10200
C887        C  0.16884093  0.67776350  0.65642833    -0.11100
C888        C  0.17094903  0.70378153  0.64194062     0.20400
C889        C  0.16863971  0.70444340  0.61219125    -0.13100
C890        C  0.16454085  0.67907124  0.59700840    -0.11400
C891        C  0.17579694  0.72947252  0.65796351     0.01400
C892        C  0.17983211  0.74902809  0.67411851    -0.31400
C893        C  0.15993606  0.62675892  0.59601950     0.02800
C894        C  0.15909357  0.60450835  0.58321817    -0.33100
H895        H  0.16347148  0.63245136  0.65272331     0.13800
H896        H  0.17061444  0.67702356  0.67941922     0.13700
H897        H  0.17024535  0.72445303  0.60076789     0.13500
H898        H  0.16313494  0.67969654  0.57398569     0.12500
C899        C  0.09038978  0.90252161  0.72387033     0.18900
C900        C  0.08070005  0.91541132  0.74898887    -0.10200
C901        C  0.06416442  0.94016434  0.74768479    -0.11100
C902        C  0.05729555  0.95215033  0.72124853     0.20400
C903        C  0.06644840  0.93891719  0.69609221    -0.13100
C904        C  0.08300243  0.91414710  0.69739945    -0.11400
C905        C  0.04170844  0.97850967  0.71999446     0.01400
C906        C  0.02895310  0.00078349  0.71903938    -0.31400
C907        C  0.10944585  0.87856824  0.72544006     0.02800
C908        C  0.12701985  0.85997927  0.72768294    -0.33100
H909        H  0.08642963  0.90666642  0.76956609     0.13800
H910        H  0.05719270  0.95022493  0.76725648     0.13700
H911        H  0.06123911  0.94801604  0.67554587     0.13500
H912        H  0.09050973  0.90442461  0.67784848     0.12500
C913        C  0.93935624  0.95216204  0.71843851     0.18900
C914        C  0.91178618  0.94950255  0.70731113    -0.10200
C915        C  0.89641398  0.92431485  0.71141001    -0.11100
C916        C  0.90853092  0.90167613  0.72664711     0.20400
C917        C  0.93619932  0.90423571  0.73761389    -0.13100
C918        C  0.95160300  0.92945201  0.73348694    -0.11400
C919        C  0.89196719  0.87638422  0.73173702     0.01400
C920        C  0.87575032  0.85689315  0.73583879    -0.31400
C921        C  0.95465472  0.97852910  0.71533411     0.02800
C922        C  0.96747117  0.00075112  0.71411158    -0.33100
H923        H  0.90207892  0.96697896  0.69577109     0.13800
H924        H  0.87497263  0.92260552  0.70298571     0.13700
H925        H  0.94570371  0.88692168  0.74956513     0.13500
H926        H  0.97289483  0.93137485  0.74228056     0.12500
C927        C  0.82096046  0.70016892  0.65179300     0.18900
C928        C  0.84517045  0.68268568  0.65257989    -0.10200
C929        C  0.84616806  0.65784005  0.63616808    -0.11100
C930        C  0.82294598  0.65039157  0.61895355     0.20400
C931        C  0.79885299  0.66800985  0.61793309    -0.13100
C932        C  0.79784458  0.69285484  0.63436116    -0.11400
C933        C  0.82367387  0.62451680  0.60261982     0.01400
C934        C  0.82413009  0.60286847  0.58885153    -0.31400
C935        C  0.81934794  0.72481607  0.66991106     0.02800
C936        C  0.81784373  0.74422899  0.68663320    -0.33100
H937        H  0.86308822  0.68807835  0.66611561     0.13800
H938        H  0.86489813  0.64432749  0.63709341     0.13700
H939        H  0.78079454  0.66240417  0.60467145     0.13500
H940        H  0.77897027  0.70614087  0.63373193     0.12500
C941        C  0.82419673  0.70069054  0.46112837     0.18900
C942        C  0.81541628  0.70237553  0.48961626    -0.10200
C943        C  0.81707849  0.67830874  0.50716913    -0.11100
C944        C  0.82751139  0.65251028  0.49624663     0.20400
C945        C  0.83634660  0.65089991  0.46780393    -0.13100
C946        C  0.83469161  0.67491171  0.45029715    -0.11400
C947        C  0.82840682  0.62739231  0.51377975     0.01400
C948        C  0.82847801  0.60550071  0.52720299    -0.31400
C949        C  0.82199598  0.72505497  0.44265626     0.02800
C950        C  0.82006706  0.74410134  0.42554691    -0.33100
H951        H  0.80714009  0.72218713  0.49817306     0.13800
H952        H  0.81006356  0.67973985  0.52910524     0.13700
H953        H  0.84430536  0.63102862  0.45911120     0.13500
H954        H  0.84141188  0.67333803  0.42826567     0.12500
C955        C  0.93939971  0.95248079  0.38217547     0.18900
C956        C  0.94115647  0.93162043  0.40346396    -0.10200
C957        C  0.92619263  0.90594560  0.40053464    -0.11100
C958        C  0.90951235  0.90102247  0.37624723     0.20400
C959        C  0.90822210  0.92168370  0.35474691    -0.13100
C960        C  0.92313990  0.94732533  0.35768612    -0.11400
C961        C  0.89229500  0.87568595  0.37397917     0.01400
C962        C  0.87571789  0.85616061  0.37161114    -0.31400
C963        C  0.95386488  0.97934389  0.38552219     0.02800
C964        C  0.96603391  0.00190579  0.38752640    -0.33100
H965        H  0.95375362  0.93536279  0.42245618     0.13800
H966        H  0.92724513  0.89018640  0.41736398     0.13700
H967        H  0.89529458  0.91818018  0.33595048     0.13500
H968        H  0.92168930  0.96325822  0.34106860     0.12500
C969        C  0.64938079  0.46036334  0.21817417     0.18900
C970        C  0.62262818  0.44713560  0.21687163    -0.10200
C971        C  0.59792093  0.46354625  0.21432887    -0.11100
C972        C  0.59980333  0.49330011  0.21306024     0.20400
C973        C  0.62658320  0.50659964  0.21397478    -0.13100
C974        C  0.65136834  0.49013439  0.21653087    -0.11400
C975        C  0.57411200  0.50999899  0.21185407     0.01400
C976        C  0.55204827  0.52317549  0.21186133    -0.31400
C977        C  0.67442101  0.44308776  0.22205078     0.02800
C978        C  0.69345267  0.42629235  0.22599950    -0.33100
H979        H  0.62085577  0.42414794  0.21817924     0.13800
H980        H  0.57734597  0.45306128  0.21371878     0.13700
H981        H  0.62825616  0.52962351  0.21306259     0.13500
H982        H  0.67196731  0.50058737  0.21755868     0.12500
C983        C  0.90191473  0.37712446  0.11337349     0.18900
C984        C  0.89734598  0.39665966  0.13549268    -0.10200
C985        C  0.87202147  0.39572895  0.15119702    -0.11100
C986        C  0.85117165  0.37529034  0.14482102     0.20400
C987        C  0.85556862  0.35602692  0.12244395    -0.13100
C988        C  0.88088081  0.35697224  0.10671972    -0.11400
C989        C  0.82603388  0.37312087  0.16222259     0.01400
C990        C  0.80627355  0.37077276  0.17844847    -0.31400
C991        C  0.92833942  0.37737128  0.09782948     0.02800
C992        C  0.95034344  0.37718759  0.08456695    -0.33100
H993        H  0.91347340  0.41234804  0.14079662     0.13800
H994        H  0.86887643  0.41065066  0.16857849     0.13700
H995        H  0.83965226  0.34006084  0.11745043     0.13500
H996        H  0.88419510  0.34180527  0.08964001     0.12500
C997        C  0.64800291  0.64818330  0.22768566     0.18900
C998        C  0.62365715  0.66034625  0.21534756    -0.10200
C999        C  0.59895887  0.64403453  0.21167847    -0.11100
C1000       C  0.59846006  0.61546377  0.22033586     0.20400
C1001       C  0.62278134  0.60328949  0.23272071    -0.13100
C1002       C  0.64750377  0.61962174  0.23639942    -0.11400
C1003       C  0.57287121  0.59881618  0.21700127     0.01400
C1004       C  0.55123548  0.58504482  0.21500346    -0.31400
C1005       C  0.67327834  0.66521995  0.23149532     0.02800
C1006       C  0.69329720  0.68111924  0.23433612    -0.33100
H1007       H  0.62376720  0.68245236  0.20861757     0.13800
H1008       H  0.58024338  0.65371478  0.20217804     0.13700
H1009       H  0.62258494  0.58126144  0.23959406     0.13500
H1010       H  0.66615243  0.61002416  0.24605381     0.12500
C1011       C  0.90430818  0.72346771  0.11660540     0.18900
C1012       C  0.87796395  0.72158849  0.10261702    -0.10200
C1013       C  0.85260720  0.72314067  0.11825752    -0.11100
C1014       C  0.85360897  0.72659260  0.14788032     0.20400
C1015       C  0.87997366  0.72837762  0.16180335    -0.13100
C1016       C  0.90526757  0.72682070  0.14620113    -0.11400
C1017       C  0.82782189  0.72874959  0.16426281     0.01400
C1018       C  0.80799422  0.73126561  0.18035956    -0.31400
C1019       C  0.93039180  0.72224103  0.10066834     0.02800
C1020       C  0.95228779  0.72150993  0.08732352    -0.33100
H1021       H  0.87705327  0.71904309  0.07968224     0.13800
H1022       H  0.83231853  0.72178034  0.10730221     0.13700
H1023       H  0.88096241  0.73109497  0.18469289     0.13500
H1024       H  0.92554215  0.72833955  0.15717842     0.12500
C1025       C  0.90080259  0.72252439  0.99821067     0.18900
C1026       C  0.87900540  0.74117633  0.00660763    -0.10200
C1027       C  0.85382335  0.74286720  0.99068513    -0.11100
C1028       C  0.85035751  0.72585385  0.96638225     0.20400
C1029       C  0.87195867  0.70685144  0.95833362    -0.13100
C1030       C  0.89710914  0.70518965  0.97420902    -0.11400
C1031       C  0.82559216  0.72906676  0.94857162     0.01400
C1032       C  0.80660436  0.73222293  0.93156213    -0.31400
C1033       C  0.92732726  0.72171320  0.01356598     0.02800
C1034       C  0.94990443  0.72111215  0.02581467    -0.33100
H1035       H  0.88166304  0.75469917  0.02515590     0.13800
H1036       H  0.83732132  0.75776071  0.99699962     0.13700
H1037       H  0.86958935  0.69373076  0.93950089     0.13500
H1038       H  0.91383398  0.69074292  0.96752397     0.12500
C1039       C  0.65044573  0.64739365  0.87702088     0.18900
C1040       C  0.62812177  0.65611352  0.89484152    -0.10200
C1041       C  0.60287803  0.64033186  0.89598989    -0.11100
C1042       C  0.59985802  0.61577205  0.87930041     0.20400
C1043       C  0.62232996  0.60678647  0.86178083    -0.13100
C1044       C  0.64759288  0.62260890  0.86060439    -0.11400
C1045       C  0.57346018  0.60023483  0.87957824     0.01400
C1046       C  0.55130846  0.58724943  0.87930085    -0.31400
C1047       C  0.67561443  0.66472612  0.87475831     0.02800
C1048       C  0.69518063  0.68125390  0.87294410    -0.33100
H1049       H  0.63009061  0.67533053  0.90752514     0.13800
H1050       H  0.58561001  0.64746192  0.90959637     0.13700
H1051       H  0.62017236  0.58780542  0.84880491     0.13500
H1052       H  0.66467940  0.61576398  0.84666544     0.12500
C1053       C  0.59939750  0.49467838  0.87965094     0.18900
C1054       C  0.59711865  0.46504810  0.87676151    -0.10200
C1055       C  0.62166417  0.44818643  0.87568359    -0.11100
C1056       C  0.64869057  0.46080518  0.87749172     0.20400
C1057       C  0.65103512  0.49044213  0.88068435    -0.13100
C1058       C  0.62641554  0.50735934  0.88175729    -0.11400
C1059       C  0.67373877  0.44310740  0.87542372     0.01400
C1060       C  0.69300487  0.42622710  0.87295644    -0.31400
C1061       C  0.57394262  0.51188630  0.87982058     0.02800
C1062       C  0.55205443  0.52541020  0.87937517    -0.33100
H1063       H  0.57638028  0.45500896  0.87509161     0.13800
H1064       H  0.61957591  0.42531851  0.87318675     0.13700
H1065       H  0.67182020  0.50045175  0.88209218     0.13500
H1066       H  0.62843841  0.53027487  0.88397698     0.12500
C1067       C  0.90071507  0.37758545  0.99282311     0.18900
C1068       C  0.87541779  0.36609388  0.00386847    -0.10200
C1069       C  0.85068801  0.36543757  0.98714560    -0.11100
C1070       C  0.85115889  0.37630213  0.95933801     0.20400
C1071       C  0.87639338  0.38803805  0.94844419    -0.13100
C1072       C  0.90108428  0.38867640  0.96513042    -0.11400
C1073       C  0.82624568  0.37443303  0.94145211     0.01400
C1074       C  0.80669343  0.37221279  0.92488851    -0.31400
C1075       C  0.92647134  0.37753797  0.00954361     0.02800
C1076       C  0.94854276  0.37742209  0.02274903    -0.33100
H1077       H  0.87489597  0.35742253  0.02525191     0.13800
H1078       H  0.83133949  0.35619989  0.99575827     0.13700
H1079       H  0.87706668  0.39638773  0.92694802     0.13500
H1080       H  0.92052032  0.39756269  0.95634809     0.12500
loop_ 
_geom_bond_atom_site_label_1 
_geom_bond_atom_site_label_2 
_geom_bond_distance 
_geom_bond_site_symmetry_2 
_ccdc_geom_bond_type 
In1           O3   2.235       .  S
In1           O4   2.247       .  S
In1          O12   2.236       .  S
In1           O6   2.248       .  S
In1           O8   2.252       .  S
In1           O9   2.254       .  S
In1          O10   2.240       .  S
In1          O13   2.241       .  S
C2            O8   1.264       .  A
C2           O10   1.258       .  A
C2          C262   1.464       .  S
O3           C11   1.261       .  A
O4           C11   1.263       .  A
C5           O12   1.261       .  A
C5            O6   1.263       .  A
C5         C1060   1.437       .  S
C7            O9   1.263       .  A
C7           O13   1.258       .  A
C7          C106   1.464       .  S
C11        C1074   1.437       .  S
In14         O16   2.240       .  S
In14         O17   2.243       .  S
In14         O25   2.233       .  S
In14         O19   2.247       .  S
In14         O21   2.257       .  S
In14         O22   2.241       .  S
In14         O23   2.239       .  S
In14         O26   2.228       .  S
C15          O21   1.263       .  A
C15          O23   1.257       .  A
C15         C119   1.464       .  S
O16          C24   1.258       .  A
O17          C24   1.262       .  A
C18          O25   1.260       .  A
C18          O19   1.263       .  A
C18        C1032   1.434       .  S
C20          O22   1.262       .  A
C20          O26   1.261       .  A
C20        C1048   1.432       .  S
C24          C67   1.460       .  S
In27         O29   2.230       .  S
In27         O30   2.246       .  S
In27         O38   2.227       .  S
In27         O32   2.242       .  S
In27         O34   2.251       .  S
In27         O35   2.250       .  S
In27         O36   2.231       .  S
In27         O39   2.240       .  S
C28          O34   1.264       .  A
C28          O36   1.257       .  A
C28         C158   1.461       .  S
O29          C37   1.261       .  A
O30          C37   1.264       .  A
C31          O38   1.261       .  A
C31          O32   1.263       .  A
C31        C1018   1.432       .  S
C33          O35   1.264       .  A
C33          O39   1.258       .  A
C33          C54   1.463       .  S
C37        C1006   1.435       .  S
In40         O42   2.229       .  S
In40         O43   2.247       .  S
In40         O51   2.225       .  S
In40         O45   2.242       .  S
In40         O47   2.253       .  S
In40         O48   2.243       .  S
In40         O49   2.236       .  S
In40         O52   2.229       .  S
C41          O47   1.264       .  A
C41          O49   1.258       .  A
C41         C171   1.464       .  S
O42          C50   1.258       .  A
O43          C50   1.264       .  A
C44          O51   1.261       .  A
C44          O45   1.264       .  A
C44         C990   1.432       .  S
C46          O48   1.263       .  A
C46          O52   1.261       .  A
C46         C978   1.434       .  S
C50         C297   1.460       .  S
In53         O55   2.233       .  S
In53         O56   2.241       .  S
In53         O64   2.232       .  S
In53         O58   2.248       .  S
In53         O60   2.256       .  S
In53         O61   2.249       .  S
In53         O62   2.240       .  S
In53         O65   2.238       .  S
C54          O60   1.263       .  A
C54          O62   1.257       .  A
O55          C63   1.261       .  A
O56          C63   1.262       .  A
C57          O64   1.261       .  A
C57          O58   1.263       .  A
C57         C962   1.436       .  S
C59          O61   1.262       .  A
C59          O65   1.257       .  A
C59         C163   1.460       .  S
C63         C950   1.434       .  S
In66         O68   2.238       .  S
In66         O69   2.247       .  S
In66         O77   2.226       .  S
In66         O71   2.246       .  S
In66         O73   2.251       .  S
In66         O74   2.240       .  S
In66         O75   2.230       .  S
In66         O78   2.229       .  S
C67          O73   1.263       .  A
C67          O75   1.257       .  A
O68          C76   1.258       .  A
O69          C76   1.263       .  A
C70          O77   1.260       .  A
C70          O71   1.263       .  A
C70         C920   1.433       .  S
C72          O74   1.263       .  A
C72          O78   1.261       .  A
C72         C936   1.432       .  S
C76         C128   1.461       .  S
In79         O81   2.226       .  S
In79         O82   2.249       .  S
In79         O90   2.232       .  S
In79         O84   2.239       .  S
In79         O86   2.250       .  S
In79         O87   2.250       .  S
In79         O88   2.238       .  S
In79         O91   2.236       .  S
C80          O86   1.264       .  A
C80          O88   1.259       .  A
C80         C215   1.464       .  S
O81          C89   1.260       .  A
O82          C89   1.264       .  A
C83          O90   1.262       .  A
C83          O84   1.263       .  A
C83         C908   1.433       .  S
C85          O87   1.264       .  A
C85          O91   1.258       .  A
C85         C132   1.462       .  S
C89         C892   1.433       .  S
In92         O94   2.238       .  S
In92         O95   2.248       .  S
In92        O103   2.238       .  S
In92         O97   2.255       .  S
In92         O99   2.254       .  S
In92        O100   2.245       .  S
In92        O101   2.240       .  S
In92        O104   2.229       .  S
C93          O99   1.264       .  A
C93         O101   1.258       .  A
C93         C236   1.464       .  S
O94         C102   1.258       .  A
O95         C102   1.263       .  A
C96         O103   1.261       .  A
C96          O97   1.264       .  A
C96         C878   1.440       .  S
C98         O100   1.263       .  A
C98         O104   1.261       .  A
C98         C866   1.433       .  S
C102        C184   1.462       .  S
In105       O107   2.225       .  S
In105       O108   2.242       .  S
In105       O116   2.230       .  S
In105       O110   2.243       .  S
In105       O112   2.253       .  S
In105       O113   2.249       .  S
In105       O114   2.240       .  S
In105       O117   2.232       .  S
C106        O112   1.263       .  A
C106        O114   1.258       .  A
O107        C115   1.261       .  A
O108        C115   1.263       .  A
C109        O116   1.261       .  A
C109        O110   1.264       .  A
C109        C852   1.434       .  S
C111        O113   1.263       .  A
C111        O117   1.257       .  A
C111        C267   1.459       .  S
C115        C838   1.432       .  S
In118       O120   2.234       .  S
In118       O121   2.252       .  S
In118       O129   2.229       .  S
In118       O123   2.244       .  S
In118       O125   2.250       .  S
In118       O126   2.246       .  S
In118       O127   2.244       .  S
In118       O130   2.229       .  S
C119        O125   1.263       .  A
C119        O127   1.258       .  A
O120        C128   1.257       .  A
O121        C128   1.263       .  A
C122        O129   1.261       .  A
C122        O123   1.264       .  A
C122        C810   1.434       .  S
C124        O126   1.263       .  A
C124        O130   1.261       .  A
C124        C822   1.433       .  S
In131       O133   2.232       .  S
In131       O134   2.244       .  S
In131       O142   2.234       .  S
In131       O136   2.245       .  S
In131       O138   2.252       .  S
In131       O139   2.252       .  S
In131       O140   2.239       .  S
In131       O143   2.237       .  S
C132        O138   1.263       .  A
C132        O140   1.257       .  A
O133        C141   1.261       .  A
O134        C141   1.263       .  A
C135        O142   1.261       .  A
C135        O136   1.263       .  A
C135        C780   1.435       .  S
C137        O139   1.263       .  A
C137        O143   1.257       .  A
C137        C210   1.461       .  S
C141        C794   1.435       .  S
In144       O146   2.244       .  S
In144       O147   2.246       .  S
In144       O155   2.229       .  S
In144       O149   2.245       .  S
In144       O151   2.253       .  S
In144       O152   2.246       .  S
In144       O153   2.233       .  S
In144       O156   2.230       .  S
C145        O151   1.263       .  A
C145        O153   1.258       .  A
C145        C223   1.462       .  S
O146        C154   1.258       .  A
O147        C154   1.262       .  A
C148        O155   1.261       .  A
C148        O149   1.263       .  A
C148        C766   1.433       .  S
C150        O152   1.263       .  A
C150        O156   1.261       .  A
C150        C752   1.434       .  S
C154        C284   1.462       .  S
In157       O159   2.227       .  S
In157       O160   2.238       .  S
In157       O168   2.229       .  S
In157       O162   2.242       .  S
In157       O164   2.246       .  S
In157       O165   2.247       .  S
In157       O166   2.239       .  S
In157       O169   2.236       .  S
C158        O164   1.263       .  A
C158        O166   1.258       .  A
O159        C167   1.261       .  A
O160        C167   1.263       .  A
C161        O168   1.261       .  A
C161        O162   1.262       .  A
C161        C724   1.432       .  S
C163        O165   1.263       .  A
C163        O169   1.258       .  A
C167        C738   1.431       .  S
In170       O172   2.235       .  S
In170       O173   2.248       .  S
In170       O181   2.229       .  S
In170       O175   2.249       .  S
In170       O177   2.251       .  S
In170       O178   2.241       .  S
In170       O179   2.243       .  S
In170       O182   2.233       .  S
C171        O177   1.263       .  A
C171        O179   1.258       .  A
O172        C180   1.258       .  A
O173        C180   1.262       .  A
C174        O181   1.260       .  A
C174        O175   1.263       .  A
C174        C696   1.434       .  S
C176        O178   1.262       .  A
C176        O182   1.261       .  A
C176        C710   1.433       .  S
C180        C288   1.460       .  S
In183       O185   2.239       .  S
In183       O186   2.250       .  S
In183       O194   2.230       .  S
In183       O188   2.248       .  S
In183       O190   2.253       .  S
In183       O191   2.242       .  S
In183       O192   2.238       .  S
In183       O195   2.235       .  S
C184        O190   1.262       .  A
C184        O192   1.257       .  A
O185        C193   1.257       .  A
O186        C193   1.262       .  A
C187        O194   1.260       .  A
C187        O188   1.263       .  A
C187        C668   1.434       .  S
C189        O191   1.262       .  A
C189        O195   1.262       .  A
C189        C684   1.435       .  S
C193        C245   1.462       .  S
In196       O198   2.228       .  S
In196       O199   2.241       .  S
In196       O207   2.231       .  S
In196       O201   2.247       .  S
In196       O203   2.255       .  S
In196       O204   2.248       .  S
In196       O205   2.233       .  S
In196       O208   2.236       .  S
C197        O203   1.264       .  A
C197        O205   1.258       .  A
C197        C254   1.463       .  S
O198        C206   1.262       .  A
O199        C206   1.264       .  A
C200        O207   1.261       .  A
C200        O201   1.263       .  A
C200        C656   1.435       .  S
C202        O204   1.263       .  A
C202        O208   1.258       .  A
C202        C306   1.461       .  S
C206        C642   1.433       .  S
In209       O211   2.232       .  S
In209       O212   2.247       .  S
In209       O220   2.228       .  S
In209       O214   2.243       .  S
In209       O216   2.248       .  S
In209       O217   2.253       .  S
In209       O218   2.238       .  S
In209       O221   2.242       .  S
C210        O216   1.263       .  A
C210        O218   1.258       .  A
O211        C219   1.261       .  A
O212        C219   1.263       .  A
C213        O220   1.261       .  A
C213        O214   1.263       .  A
C213        C626   1.432       .  S
C215        O217   1.263       .  A
C215        O221   1.258       .  A
C219        C612   1.435       .  S
In222       O224   2.235       .  S
In222       O225   2.249       .  S
In222       O233   2.230       .  S
In222       O227   2.244       .  S
In222       O229   2.248       .  S
In222       O230   2.240       .  S
In222       O231   2.244       .  S
In222       O234   2.229       .  S
C223        O229   1.262       .  A
C223        O231   1.258       .  A
O224        C232   1.257       .  A
O225        C232   1.262       .  A
C226        O233   1.261       .  A
C226        O227   1.263       .  A
C226        C584   1.433       .  S
C228        O230   1.262       .  A
C228        O234   1.261       .  A
C228        C600   1.431       .  S
C232        C275   1.459       .  S
In235       O237   2.236       .  S
In235       O238   2.249       .  S
In235       O246   2.232       .  S
In235       O240   2.247       .  S
In235       O242   2.254       .  S
In235       O243   2.243       .  S
In235       O244   2.238       .  S
In235       O247   2.230       .  S
C236        O242   1.264       .  A
C236        O244   1.258       .  A
O237        C245   1.258       .  A
O238        C245   1.263       .  A
C239        O246   1.261       .  A
C239        O240   1.264       .  A
C239        C556   1.435       .  S
C241        O243   1.264       .  A
C241        O247   1.262       .  A
C241        C572   1.434       .  S
In248       O250   2.234       .  S
In248       O251   2.249       .  S
In248       O259   2.233       .  S
In248       O253   2.250       .  S
In248       O255   2.255       .  S
In248       O256   2.248       .  S
In248       O257   2.239       .  S
In248       O260   2.245       .  S
C249        O255   1.263       .  A
C249        O257   1.258       .  A
C249        C301   1.464       .  S
O250        C258   1.261       .  A
O251        C258   1.262       .  A
C252        O259   1.261       .  A
C252        O253   1.263       .  A
C252        C528   1.437       .  S
C254        O256   1.262       .  A
C254        O260   1.258       .  A
C258        C542   1.436       .  S
In261       O263   2.233       .  S
In261       O264   2.240       .  S
In261       O272   2.226       .  S
In261       O266   2.250       .  S
In261       O268   2.255       .  S
In261       O269   2.243       .  S
In261       O270   2.239       .  S
In261       O273   2.235       .  S
C262        O268   1.264       .  A
C262        O270   1.258       .  A
O263        C271   1.262       .  A
O264        C271   1.262       .  A
C265        O272   1.259       .  A
C265        O266   1.264       .  A
C265        C500   1.433       .  S
C267        O269   1.263       .  A
C267        O273   1.258       .  A
C271        C514   1.434       .  S
In274       O276   2.232       .  S
In274       O277   2.255       .  S
In274       O285   2.232       .  S
In274       O279   2.239       .  S
In274       O281   2.244       .  S
In274       O282   2.242       .  S
In274       O283   2.233       .  S
In274       O286   2.226       .  S
C275        O281   1.263       .  A
C275        O283   1.258       .  A
O276        C284   1.257       .  A
O277        C284   1.264       .  A
C278        O285   1.262       .  A
C278        O279   1.263       .  A
C278        C488   1.434       .  S
C280        O282   1.264       .  A
C280        O286   1.261       .  A
C280        C472   1.432       .  S
In287       O289   2.238       .  S
In287       O290   2.247       .  S
In287       O298   2.228       .  S
In287       O292   2.238       .  S
In287       O294   2.249       .  S
In287       O295   2.246       .  S
In287       O296   2.238       .  S
In287       O299   2.231       .  S
C288        O294   1.262       .  A
C288        O296   1.257       .  A
O289        C297   1.257       .  A
O290        C297   1.263       .  A
C291        O298   1.261       .  A
C291        O292   1.263       .  A
C291        C458   1.431       .  S
C293        O295   1.263       .  A
C293        O299   1.261       .  A
C293        C444   1.435       .  S
In300       O302   2.231       .  S
In300       O303   2.246       .  S
In300       O311   2.231       .  S
In300       O305   2.245       .  S
In300       O307   2.252       .  S
In300       O308   2.251       .  S
In300       O309   2.246       .  S
In300       O312   2.240       .  S
C301        O307   1.261       .  A
C301        O309   1.257       .  A
O302        C310   1.261       .  A
O303        C310   1.263       .  A
C304        O311   1.261       .  A
C304        O305   1.263       .  A
C304        C418   1.434       .  S
C306        O308   1.262       .  A
C306        O312   1.257       .  A
C310        C432   1.434       .  S
C313       C1046   1.441       .  S
C313        C314   1.408       .  A
C313        C318   1.402       .  A
C314       C1062   1.446       .  S
C314        C315   1.400       .  A
C315        C316   1.401       .  A
C315        H320   1.085       .  S
C316        C598   1.441       .  S
C316        C317   1.408       .  A
C317        C614   1.446       .  S
C317        C318   1.401       .  A
C318        H319   1.085       .  S
C321       C1004   1.445       .  S
C321        C322   1.408       .  A
C321        C326   1.400       .  A
C322        C976   1.443       .  S
C322        C323   1.403       .  A
C323        C324   1.402       .  A
C323        H328   1.085       .  S
C324        C530   1.447       .  S
C324        C325   1.409       .  A
C325        C558   1.443       .  S
C325        C326   1.401       .  A
C326        H327   1.084       .  S
C329        C808   1.443       .  S
C329        C330   1.408       .  A
C329        C334   1.402       .  A
C330        C796   1.443       .  S
C330        C331   1.401       .  A
C331        C332   1.400       .  A
C331        H336   1.085       .  S
C332        C682   1.444       .  S
C332        C333   1.408       .  A
C333        C726   1.443       .  S
C333        C334   1.402       .  A
C334        H335   1.085       .  S
C337        C768   1.442       .  S
C337        C338   1.408       .  A
C337        C342   1.401       .  A
C338        C850   1.444       .  S
C338        C339   1.402       .  A
C339        C340   1.402       .  A
C339        H344   1.085       .  S
C340        C698   1.444       .  S
C340        C341   1.408       .  A
C341        C654   1.444       .  S
C341        C342   1.400       .  A
C342        H343   1.085       .  S
C345        C934   1.440       .  S
C345        C346   1.408       .  A
C345        C350   1.401       .  A
C346        C948   1.443       .  S
C346        C347   1.399       .  A
C347        C348   1.399       .  A
C347        H352   1.085       .  S
C348        C460   1.440       .  S
C348        C349   1.407       .  A
C349        C516   1.444       .  S
C349        C350   1.401       .  A
C350        H351   1.085       .  S
C353        C864   1.442       .  S
C353        C354   1.408       .  A
C353        C358   1.400       .  A
C354        C894   1.443       .  S
C354        C355   1.401       .  A
C355        C356   1.401       .  A
C355        H360   1.085       .  S
C356        C474   1.441       .  S
C356        C357   1.407       .  A
C357        C430   1.443       .  S
C357        C358   1.400       .  A
C358        H359   1.084       .  S
C361        C880   1.448       .  S
C361        C362   1.408   1_455  A
C361        C366   1.402       .  A
C362        C964   1.444       .  S
C362        C363   1.403       .  A
C363        C364   1.403       .  A
C363        H368   1.085       .  S
C364        C446   1.447       .  S
C364        C365   1.409   1_655  A
C365        C416   1.444       .  S
C365        C366   1.403       .  A
C366        H367   1.084       .  S
C369        C906   1.443       .  S
C369        C370   1.407   1_455  A
C369        C374   1.401       .  A
C370        C922   1.442       .  S
C370        C371   1.400       .  A
C371        C372   1.400       .  A
C371        H376   1.084       .  S
C372        C502   1.442       .  S
C372        C373   1.408   1_655  A
C373        C486   1.443       .  S
C373        C374   1.401       .  A
C374        H375   1.085       .  S
C377        C754   1.443       .  S
C377        C378   1.408       .  A
C377        C382   1.400       .  A
C378        C782   1.444       .  S
C378        C379   1.402       .  A
C379        C380   1.402       .  A
C379        H384   1.085   1_545  S
C380        C670   1.444       .  S
C380        C381   1.408       .  A
C381        C640   1.443       .  S
C381        C382   1.401       .  A
C382        H383   1.085       .  S
C385        C836   1.441       .  S
C385        C386   1.408       .  A
C385        C390   1.400       .  A
C386        C824   1.442       .  S
C386        C387   1.400       .  A
C387        C388   1.400       .  A
C387        H392   1.085       .  S
C388        C740   1.441       .  S
C388        C389   1.407       .  A
C389        C712   1.441       .  S
C389        C390   1.400       .  A
C390        H391   1.085       .  S
C393       C1076   1.445       .  S
C393        C394   1.409       .  A
C393        C398   1.401   1_655  A
C394        C992   1.443       .  S
C394        C395   1.402   1_655  A
C395        C396   1.402       .  A
C395        H400   1.085       .  S
C396        C544   1.445       .  S
C396        C397   1.408       .  A
C397        C586   1.443       .  S
C397        C398   1.401       .  A
C398        H399   1.084   1_554  S
C401       C1034   1.444       .  S
C401        C402   1.407       .  A
C401        C406   1.400   1_655  A
C402       C1020   1.440       .  S
C402        C403   1.400   1_655  A
C403        C404   1.400       .  A
C403        H408   1.085       .  S
C404        C570   1.444       .  S
C404        C405   1.408       .  A
C405        C628   1.440       .  S
C405        C406   1.401       .  A
C406        H407   1.085       .  S
C409        C417   1.440       .  S
C409        C410   1.401       .  A
C409        C414   1.401       .  A
C410        C411   1.398       .  A
C410        H419   1.084       .  S
C411        C412   1.401       .  A
C411        H420   1.084       .  S
C412        C415   1.439       .  S
C412        C413   1.402       .  A
C413        C414   1.400       .  A
C413        H421   1.083       .  S
C414        H422   1.083       .  S
C415        C416   1.206       .  T
C417        C418   1.206       .  T
C423        C431   1.439       .  S
C423        C424   1.402       .  A
C423        C428   1.401       .  A
C424        C425   1.400       .  A
C424        H433   1.083       .  S
C425        C426   1.402       .  A
C425        H434   1.084       .  S
C426        C429   1.438       .  S
C426        C427   1.400       .  A
C427        C428   1.397       .  A
C427        H435   1.084       .  S
C428        H436   1.083       .  S
C429        C430   1.205       .  T
C431        C432   1.205       .  T
C437        C445   1.442       .  S
C437        C438   1.403       .  A
C437        C442   1.401       .  A
C438        C439   1.401       .  A
C438        H447   1.083       .  S
C439        C440   1.402       .  A
C439        H448   1.083       .  S
C440        C443   1.441       .  S
C440        C441   1.401       .  A
C441        C442   1.398       .  A
C441        H449   1.084       .  S
C442        H450   1.083       .  S
C443        C444   1.206       .  T
C445        C446   1.208       .  T
C451        C459   1.435       .  S
C451        C452   1.401       .  A
C451        C456   1.400       .  A
C452        C453   1.398       .  A
C452        H461   1.084       .  S
C453        C454   1.401       .  A
C453        H462   1.083       .  S
C454        C457   1.436       .  S
C454        C455   1.401       .  A
C455        C456   1.397       .  A
C455        H463   1.084       .  S
C456        H464   1.084       .  S
C457        C458   1.203       .  T
C459        C460   1.203       .  T
C465        C473   1.436       .  S
C465        C466   1.400       .  A
C465        C470   1.402       .  A
C466        C467   1.397       .  A
C466        H475   1.084       .  S
C467        C468   1.401       .  A
C467        H476   1.084       .  S
C468        C471   1.437       .  S
C468        C469   1.401       .  A
C469        C470   1.399       .  A
C469        H477   1.084       .  S
C470        H478   1.083       .  S
C471        C472   1.204       .  T
C473        C474   1.204       .  T
C479        C487   1.439       .  S
C479        C480   1.401       .  A
C479        C484   1.401       .  A
C480        C481   1.397       .  A
C480        H489   1.084       .  S
C481        C482   1.400       .  A
C481        H490   1.084       .  S
C482        C485   1.438       .  S
C482        C483   1.402       .  A
C483        C484   1.400       .  A
C483        H491   1.083       .  S
C484        H492   1.083       .  S
C485        C486   1.205       .  T
C487        C488   1.205       .  T
C493        C501   1.437       .  S
C493        C494   1.400       .  A
C493        C498   1.402       .  A
C494        C495   1.397       .  A
C494        H503   1.085       .  S
C495        C496   1.402       .  A
C495        H504   1.084       .  S
C496        C499   1.438       .  S
C496        C497   1.401       .  A
C497        C498   1.399       .  A
C497        H505   1.083       .  S
C498        H506   1.083       .  S
C499        C500   1.205       .  T
C501        C502   1.204       .  T
C507        C515   1.439       .  S
C507        C508   1.402       .  A
C507        C512   1.400       .  A
C508        C509   1.400       .  A
C508        H517   1.083       .  S
C509        C510   1.401       .  A
C509        H518   1.083       .  S
C510        C513   1.439       .  S
C510        C511   1.401       .  A
C511        C512   1.398       .  A
C511        H519   1.084       .  S
C512        H520   1.084       .  S
C513        C514   1.205       .  T
C515        C516   1.205       .  T
C521        C529   1.442       .  S
C521        C522   1.401       .  A
C521        C526   1.402       .  A
C522        C523   1.400       .  A
C522        H531   1.083       .  S
C523        C524   1.402       .  A
C523        H532   1.084       .  S
C524        C527   1.442       .  S
C524        C525   1.402       .  A
C525        C526   1.400       .  A
C525        H533   1.084       .  S
C526        H534   1.083       .  S
C527        C528   1.207       .  T
C529        C530   1.207       .  T
C535        C543   1.440       .  S
C535        C536   1.402       .  A
C535        C540   1.400       .  A
C536        C537   1.401       .  A
C536        H545   1.084       .  S
C537        C538   1.402       .  A
C537        H546   1.083       .  S
C538        C541   1.440       .  S
C538        C539   1.401       .  A
C539        C540   1.398       .  A
C539        H547   1.084       .  S
C540        H548   1.083       .  S
C541        C542   1.206       .  T
C543        C544   1.206       .  T
C549        C557   1.438       .  S
C549        C550   1.401       .  A
C549        C554   1.401       .  A
C550        C551   1.399       .  A
C550        H559   1.084       .  S
C551        C552   1.402       .  A
C551        H560   1.084       .  S
C552        C555   1.440       .  S
C552        C553   1.401       .  A
C553        C554   1.399       .  A
C553        H561   1.082       .  S
C554        H562   1.083       .  S
C555        C556   1.206       .  T
C557        C558   1.205       .  T
C563        C571   1.439       .  S
C563        C564   1.401       .  A
C563        C568   1.401       .  A
C564        C565   1.399       .  A
C564        H573   1.083       .  S
C565        C566   1.402       .  A
C565        H574   1.083       .  S
C566        C569   1.439       .  S
C566        C567   1.401       .  A
C567        C568   1.398       .  A
C567        H575   1.084       .  S
C568        H576   1.084       .  S
C569        C570   1.206       .  T
C571        C572   1.206       .  T
C577        C585   1.438   1_556  S
C577        C578   1.400       .  A
C577        C582   1.402   1_556  A
C578        C579   1.398       .  A
C578        H587   1.084       .  S
C579        C580   1.401       .  A
C579        H588   1.083       .  S
C580        C583   1.439       .  S
C580        C581   1.401       .  A
C581        C582   1.400   1_556  A
C581        H589   1.084       .  S
C582        H590   1.084       .  S
C583        C584   1.205       .  T
C585        C586   1.205       .  T
C591        C599   1.436       .  S
C591        C592   1.401       .  A
C591        C596   1.400       .  A
C592        C593   1.400       .  A
C592        H601   1.084       .  S
C593        C594   1.402       .  A
C593        H602   1.084       .  S
C594        C597   1.436       .  S
C594        C595   1.399       .  A
C595        C596   1.396       .  A
C595        H603   1.083       .  S
C596        H604   1.083       .  S
C597        C598   1.204       .  T
C599        C600   1.204       .  T
C605        C613   1.441       .  S
C605        C606   1.402       .  A
C605        C610   1.401       .  A
C606        C607   1.400       .  A
C606        H615   1.083       .  S
C607        C608   1.402       .  A
C607        H616   1.084       .  S
C608        C611   1.440       .  S
C608        C609   1.401       .  A
C609        C610   1.399       .  A
C609        H617   1.084       .  S
C610        H618   1.083       .  S
C611        C612   1.206       .  T
C613        C614   1.207       .  T
C619        C627   1.435   1_556  S
C619        C620   1.400       .  A
C619        C624   1.401   1_556  A
C620        C621   1.396       .  A
C620        H629   1.084       .  S
C621        C622   1.401       .  A
C621        H630   1.084       .  S
C622        C625   1.437       .  S
C622        C623   1.401       .  A
C623        C624   1.399   1_556  A
C623        H631   1.083       .  S
C624        H632   1.083       .  S
C625        C626   1.204       .  T
C627        C628   1.203       .  T
C633        C641   1.438       .  S
C633        C634   1.401       .  A
C633        C638   1.401       .  A
C634        C635   1.399       .  A
C634        H643   1.083       .  S
C635        C636   1.402       .  A
C635        H644   1.083       .  S
C636        C639   1.438       .  S
C636        C637   1.401       .  A
C637        C638   1.397       .  A
C637        H645   1.084       .  S
C638        H646   1.084       .  S
C639        C640   1.205       .  T
C641        C642   1.205       .  T
C647        C655   1.439       .  S
C647        C648   1.401       .  A
C647        C652   1.402       .  A
C648        C649   1.397       .  A
C648        H657   1.084       .  S
C649        C650   1.400       .  A
C649        H658   1.083       .  S
C650        C653   1.439       .  S
C650        C651   1.402       .  A
C651        C652   1.400       .  A
C651        H659   1.083       .  S
C652        H660   1.083       .  S
C653        C654   1.206       .  T
C655        C656   1.206       .  T
C661        C669   1.439   1_565  S
C661        C662   1.402   1_565  A
C661        C666   1.400       .  A
C662        C663   1.400   1_545  A
C662        H671   1.083       .  S
C663        C664   1.401       .  A
C663        H672   1.084       .  S
C664        C667   1.439       .  S
C664        C665   1.402       .  A
C665        C666   1.398       .  A
C665        H673   1.084       .  S
C666        H674   1.083       .  S
C667        C668   1.205       .  T
C669        C670   1.206       .  T
C675        C683   1.440       .  S
C675        C676   1.402       .  A
C675        C680   1.401       .  A
C676        C677   1.399       .  A
C676        H685   1.084       .  S
C677        C678   1.401       .  A
C677        H686   1.084       .  S
C678        C681   1.439       .  S
C678        C679   1.401       .  A
C679        C680   1.398       .  A
C679        H687   1.083       .  S
C680        H688   1.083       .  S
C681        C682   1.206       .  T
C683        C684   1.206       .  T
C689        C697   1.439       .  S
C689        C690   1.401       .  A
C689        C694   1.401       .  A
C690        C691   1.399       .  A
C690        H699   1.083       .  S
C691        C692   1.401       .  A
C691        H700   1.083       .  S
C692        C695   1.439       .  S
C692        C693   1.401       .  A
C693        C694   1.399       .  A
C693        H701   1.084       .  S
C694        H702   1.083       .  S
C695        C696   1.205       .  T
C697        C698   1.206       .  T
C703        C711   1.436       .  S
C703        C704   1.399       .  A
C703        C708   1.402       .  A
C704        C705   1.396       .  A
C704        H713   1.083       .  S
C705        C706   1.401       .  A
C705        H714   1.083       .  S
C706        C709   1.437       .  S
C706        C707   1.402       .  A
C707        C708   1.400       .  A
C707        H715   1.084       .  S
C708        H716   1.084       .  S
C709        C710   1.204       .  T
C711        C712   1.204       .  T
C717        C725   1.438       .  S
C717        C718   1.401       .  A
C717        C722   1.402       .  A
C718        C719   1.397       .  A
C718        H727   1.083       .  S
C719        C720   1.401       .  A
C719        H728   1.084       .  S
C720        C723   1.437       .  S
C720        C721   1.401       .  A
C721        C722   1.399       .  A
C721        H729   1.084       .  S
C722        H730   1.084       .  S
C723        C724   1.204       .  T
C725        C726   1.205       .  T
C731        C739   1.436   1_565  S
C731        C732   1.402       .  A
C731        C736   1.400       .  A
C732        C733   1.399       .  A
C732        H741   1.083   1_565  S
C733        C734   1.401       .  A
C733        H742   1.084       .  S
C734        C737   1.436       .  S
C734        C735   1.401       .  A
C735        C736   1.396       .  A
C735        H743   1.084       .  S
C736        H744   1.083       .  S
C737        C738   1.203       .  T
C739        C740   1.204       .  T
C745        C753   1.438       .  S
C745        C746   1.400       .  A
C745        C750   1.402       .  A
C746        C747   1.397       .  A
C746        H755   1.084       .  S
C747        C748   1.401       .  A
C747        H756   1.084       .  S
C748        C751   1.439       .  S
C748        C749   1.401       .  A
C749        C750   1.400       .  A
C749        H757   1.083       .  S
C750        H758   1.084       .  S
C751        C752   1.205       .  T
C753        C754   1.205   1_556  T
C759        C767   1.437       .  S
C759        C760   1.400       .  A
C759        C764   1.402       .  A
C760        C761   1.397       .  A
C760        H769   1.084       .  S
C761        C762   1.401       .  A
C761        H770   1.084       .  S
C762        C765   1.438       .  S
C762        C763   1.401       .  A
C763        C764   1.400       .  A
C763        H771   1.083       .  S
C764        H772   1.083       .  S
C765        C766   1.205       .  T
C767        C768   1.205       .  T
C773        C781   1.439   1_565  S
C773        C774   1.401       .  A
C773        C778   1.401       .  A
C774        C775   1.399       .  A
C774        H783   1.084       .  S
C775        C776   1.401       .  A
C775        H784   1.084       .  S
C776        C779   1.440       .  S
C776        C777   1.401       .  A
C777        C778   1.399       .  A
C777        H785   1.083       .  S
C778        H786   1.083       .  S
C779        C780   1.206       .  T
C781        C782   1.206   1_556  T
C787        C795   1.438       .  S
C787        C788   1.401       .  A
C787        C792   1.401       .  A
C788        C789   1.398       .  A
C788        H797   1.083       .  S
C789        C790   1.401       .  A
C789        H798   1.083       .  S
C790        C793   1.440       .  S
C790        C791   1.402       .  A
C791        C792   1.400       .  A
C791        H799   1.083       .  S
C792        H800   1.084       .  S
C793        C794   1.206       .  T
C795        C796   1.205       .  T
C801        C809   1.439       .  S
C801        C802   1.401       .  A
C801        C806   1.402       .  A
C802        C803   1.397       .  A
C802        H811   1.083       .  S
C803        C804   1.400       .  A
C803        H812   1.084       .  S
C804        C807   1.439       .  S
C804        C805   1.402       .  A
C805        C806   1.400       .  A
C805        H813   1.084       .  S
C806        H814   1.084       .  S
C807        C808   1.205       .  T
C809        C810   1.205       .  T
C815        C823   1.437   1_565  S
C815        C816   1.402   1_565  A
C815        C820   1.400       .  A
C816        C817   1.401   1_545  A
C816        H825   1.083       .  S
C817        C818   1.402       .  A
C817        H826   1.083   1_565  S
C818        C821   1.438       .  S
C818        C819   1.400       .  A
C819        C820   1.396       .  A
C819        H827   1.084       .  S
C820        H828   1.084       .  S
C821        C822   1.205       .  T
C823        C824   1.204   1_556  T
C829        C837   1.437       .  S
C829        C830   1.401       .  A
C829        C834   1.400       .  A
C830        C831   1.397       .  A
C830        H839   1.084       .  S
C831        C832   1.400       .  A
C831        H840   1.084       .  S
C832        C835   1.436       .  S
C832        C833   1.401       .  A
C833        C834   1.398       .  A
C833        H841   1.083       .  S
C834        H842   1.083       .  S
C835        C836   1.204   1_556  T
C837        C838   1.204       .  T
C843        C851   1.439       .  S
C843        C844   1.401       .  A
C843        C848   1.401       .  A
C844        C845   1.401       .  A
C844        H853   1.084       .  S
C845        C846   1.402       .  A
C845        H854   1.083       .  S
C846        C849   1.439       .  S
C846        C847   1.400       .  A
C847        C848   1.397       .  A
C847        H855   1.083       .  S
C848        H856   1.084       .  S
C849        C850   1.206       .  T
C851        C852   1.205       .  T
C857        C865   1.438       .  S
C857        C858   1.401       .  A
C857        C862   1.401       .  A
C858        C859   1.397       .  A
C858        H867   1.083       .  S
C859        C860   1.400       .  A
C859        H868   1.084       .  S
C860        C863   1.437       .  S
C860        C861   1.401       .  A
C861        C862   1.399       .  A
C861        H869   1.083       .  S
C862        H870   1.083       .  S
C863        C864   1.205       .  T
C865        C866   1.205       .  T
C871        C879   1.443       .  S
C871        C872   1.403       .  A
C871        C876   1.400       .  A
C872        C873   1.402       .  A
C872        H881   1.084       .  S
C873        C874   1.403       .  A
C873        H882   1.083       .  S
C874        C877   1.444       .  S
C874        C875   1.402       .  A
C875        C876   1.399       .  A
C875        H883   1.083       .  S
C876        H884   1.084       .  S
C877        C878   1.209       .  T
C879        C880   1.208   1_565  T
C885        C893   1.437       .  S
C885        C886   1.400       .  A
C885        C890   1.402       .  A
C886        C887   1.396       .  A
C886        H895   1.083       .  S
C887        C888   1.401       .  A
C887        H896   1.083       .  S
C888        C891   1.438       .  S
C888        C889   1.401       .  A
C889        C890   1.400       .  A
C889        H897   1.084       .  S
C890        H898   1.083       .  S
C891        C892   1.205       .  T
C893        C894   1.205       .  T
C899        C907   1.438       .  S
C899        C900   1.401       .  A
C899        C904   1.401       .  A
C900        C901   1.398       .  A
C900        H909   1.084       .  S
C901        C902   1.401       .  A
C901        H910   1.083       .  S
C902        C905   1.438       .  S
C902        C903   1.401       .  A
C903        C904   1.399       .  A
C903        H911   1.083       .  S
C904        H912   1.084       .  S
C905        C906   1.205   1_565  T
C907        C908   1.205       .  T
C913        C921   1.437       .  S
C913        C914   1.400       .  A
C913        C918   1.402       .  A
C914        C915   1.397       .  A
C914        H923   1.083       .  S
C915        C916   1.401       .  A
C915        H924   1.083       .  S
C916        C919   1.438       .  S
C916        C917   1.401       .  A
C917        C918   1.399       .  A
C917        H925   1.083       .  S
C918        H926   1.084       .  S
C919        C920   1.204       .  T
C921        C922   1.204   1_565  T
C927        C935   1.437       .  S
C927        C928   1.401       .  A
C927        C932   1.401       .  A
C928        C929   1.398       .  A
C928        H937   1.083       .  S
C929        C930   1.400       .  A
C929        H938   1.084       .  S
C930        C933   1.436       .  S
C930        C931   1.401       .  A
C931        C932   1.398       .  A
C931        H939   1.083       .  S
C932        H940   1.083       .  S
C933        C934   1.204       .  T
C935        C936   1.204       .  T
C941        C949   1.439       .  S
C941        C942   1.402       .  A
C941        C946   1.401       .  A
C942        C943   1.400       .  A
C942        H951   1.084       .  S
C943        C944   1.402       .  A
C943        H952   1.083       .  S
C944        C947   1.438       .  S
C944        C945   1.400       .  A
C945        C946   1.397       .  A
C945        H953   1.084       .  S
C946        H954   1.084       .  S
C947        C948   1.205       .  T
C949        C950   1.205       .  T
C955        C963   1.439       .  S
C955        C956   1.402       .  A
C955        C960   1.401       .  A
C956        C957   1.400       .  A
C956        H965   1.084       .  S
C957        C958   1.402       .  A
C957        H966   1.083       .  S
C958        C961   1.440       .  S
C958        C959   1.401       .  A
C959        C960   1.398       .  A
C959        H967   1.083       .  S
C960        H968   1.083       .  S
C961        C962   1.206       .  T
C963        C964   1.206   1_565  T
C969        C977   1.438       .  S
C969        C970   1.401       .  A
C969        C974   1.402       .  A
C970        C971   1.396       .  A
C970        H979   1.083       .  S
C971        C972   1.400       .  A
C971        H980   1.083       .  S
C972        C975   1.438       .  S
C972        C973   1.403       .  A
C973        C974   1.401       .  A
C973        H981   1.084       .  S
C974        H982   1.084       .  S
C975        C976   1.205       .  T
C977        C978   1.205       .  T
C983        C991   1.438       .  S
C983        C984   1.401       .  A
C983        C988   1.401       .  A
C984        C985   1.398       .  A
C984        H993   1.084       .  S
C985        C986   1.401       .  A
C985        H994   1.085       .  S
C986        C989   1.438       .  S
C986        C987   1.401       .  A
C987        C988   1.398       .  A
C987        H995   1.083       .  S
C988        H996   1.083       .  S
C989        C990   1.204       .  T
C991        C992   1.205       .  T
C997       C1005   1.440       .  S
C997        C998   1.402       .  A
C997       C1002   1.401       .  A
C998        C999   1.398       .  A
C998       H1007   1.084       .  S
C999       C1000   1.401       .  A
C999       H1008   1.084       .  S
C1000      C1003   1.440       .  S
C1000      C1001   1.402       .  A
C1001      C1002   1.400       .  A
C1001      H1009   1.083       .  S
C1002      H1010   1.083       .  S
C1003      C1004   1.206       .  T
C1005      C1006   1.206       .  T
C1011      C1019   1.435       .  S
C1011      C1012   1.402       .  A
C1011      C1016   1.399       .  A
C1012      C1013   1.399       .  A
C1012      H1021   1.084       .  S
C1013      C1014   1.401       .  A
C1013      H1022   1.083       .  S
C1014      C1017   1.436       .  S
C1014      C1015   1.401       .  A
C1015      C1016   1.396       .  A
C1015      H1023   1.083       .  S
C1016      H1024   1.084       .  S
C1017      C1018   1.204       .  T
C1019      C1020   1.203       .  T
C1025      C1033   1.438   1_556  S
C1025      C1026   1.402   1_556  A
C1025      C1030   1.400       .  A
C1026      C1027   1.400   1_554  A
C1026      H1035   1.084       .  S
C1027      C1028   1.402       .  A
C1027      H1036   1.084       .  S
C1028      C1031   1.439       .  S
C1028      C1029   1.401       .  A
C1029      C1030   1.397       .  A
C1029      H1037   1.083       .  S
C1030      H1038   1.083       .  S
C1031      C1032   1.205       .  T
C1033      C1034   1.205       .  T
C1039      C1047   1.437       .  S
C1039      C1040   1.401       .  A
C1039      C1044   1.401       .  A
C1040      C1041   1.397       .  A
C1040      H1049   1.084       .  S
C1041      C1042   1.400       .  A
C1041      H1050   1.084       .  S
C1042      C1045   1.436       .  S
C1042      C1043   1.401       .  A
C1043      C1044   1.399       .  A
C1043      H1051   1.083       .  S
C1044      H1052   1.083       .  S
C1045      C1046   1.204       .  T
C1047      C1048   1.204       .  T
C1053      C1061   1.441       .  S
C1053      C1054   1.400       .  A
C1053      C1058   1.403       .  A
C1054      C1055   1.398       .  A
C1054      H1063   1.083       .  S
C1055      C1056   1.401       .  A
C1055      H1064   1.083       .  S
C1056      C1059   1.442       .  S
C1056      C1057   1.402       .  A
C1057      C1058   1.402       .  A
C1057      H1065   1.084       .  S
C1058      H1066   1.084       .  S
C1059      C1060   1.207       .  T
C1061      C1062   1.207       .  T
C1067      C1075   1.441   1_556  S
C1067      C1068   1.402   1_556  A
C1067      C1072   1.401       .  A
C1068      C1069   1.401   1_554  A
C1068      H1077   1.084       .  S
C1069      C1070   1.402       .  A
C1069      H1078   1.084       .  S
C1070      C1073   1.441       .  S
C1070      C1071   1.401       .  A
C1071      C1072   1.398       .  A
C1071      H1079   1.083       .  S
C1072      H1080   1.084       .  S
C1073      C1074   1.207       .  T
C1075      C1076   1.207       .  T
