geometry optimzed in LAMMPS
_audit_creation_date              2020-11-30 
_audit_creation_method            'lammps2cif' 
_symmetry_space_group_name_H-M    'P1' 
_symmetry_Int_Tables_number       1 
_symmetry_cell_setting            triclinic 
loop_ 
_symmetry_equiv_pos_as_xyz 
  x,y,z 
_cell_length_a                    44.24504301 
_cell_length_b                    44.36047670441741 
_cell_length_c                    33.153335652567584 
_cell_angle_alpha                 90.14368537403547 
_cell_angle_beta                  90.03619178976882 
_cell_angle_gamma                 119.89672756799654 
loop_ 
_atom_site_label 
_atom_site_type_symbol 
_atom_site_fract_x 
_atom_site_fract_y 
_atom_site_fract_z 
_atom_site_charge 
O1          O  0.43980074  0.47141855  0.33370660    -0.73000
O2          O  0.02948914  0.06202120  0.33562497    -0.73900
O3          O  0.48555269  0.01666524  0.27458556    -0.62600
O4          O  0.48337566  0.01584439  0.39607656    -0.71000
O5          O  0.01385575  0.48859349  0.39596556    -0.70500
O6          O  0.01381102  0.48711252  0.27548540    -0.61800
O7          O  0.05901198  0.03382476  0.33494924    -0.74300
O8          O  0.46879662  0.44266221  0.33564240    -0.73100
Cu9        Cu  0.48358939  0.01752899  0.33510017     1.04600
Cu10       Cu  0.01496322  0.48714388  0.33565727     1.04300
C11         C  0.43994855  0.44272112  0.33378877     0.93200
C12         C  0.05854901  0.06244282  0.33449239     0.92400
C13         C  0.49943953  0.50136290  0.25589456     0.84500
C14         C  0.99821616  0.00176333  0.41525839     0.90800
O15         O  0.46734514  0.18995632  0.33415671    -0.73000
O16         O  0.05788603  0.28057175  0.33512592    -0.73900
O17         O  0.01163125  0.23572536  0.39463374    -0.62600
O18         O  0.01388556  0.23460842  0.27388583    -0.71000
O19         O  0.48593775  0.26448993  0.27222262    -0.70500
O20         O  0.48088035  0.26291608  0.39350049    -0.61800
O21         O  0.02865208  0.30909125  0.33486663    -0.74300
O22         O  0.43838646  0.21874413  0.33144597    -0.73100
Cu23       Cu  0.01368296  0.23419425  0.33446767     1.04600
Cu24       Cu  0.48244402  0.26482470  0.33283765     1.04300
C25         C  0.43849110  0.19004694  0.33336216     0.93200
C26         C  0.05762857  0.30926395  0.33551621     0.92400
C27         C  0.99566535  0.24895990  0.41310327     0.84500
C28         C  0.00066168  0.24978513  0.25384618     0.90800
O29         O  0.27907198  0.06020556  0.33456395    -0.73000
O30         O  0.18769682  0.47023041  0.33274950    -0.73900
O31         O  0.23262744  0.01515434  0.39391691    -0.62600
O32         O  0.23423840  0.01553707  0.27304916    -0.71000
O33         O  0.26146415  0.48505905  0.27391832    -0.70500
O34         O  0.26196008  0.48684414  0.39451129    -0.61800
O35         O  0.21620350  0.44102974  0.33484671    -0.74300
O36         O  0.30722229  0.03060012  0.33370561    -0.73100
Cu37       Cu  0.23241494  0.01630118  0.33351502     1.04600
Cu38       Cu  0.26265200  0.48486580  0.33427861     1.04300
C39         C  0.30767524  0.05960919  0.33435065     0.93200
C40         C  0.18746499  0.44130641  0.33399121     0.92400
C41         C  0.24730288  0.50125573  0.41337451     0.84500
C42         C  0.24783724  0.50004663  0.25426567     0.90800
O43         O  0.23446441  0.26783427  0.38931828    -0.73000
O44         O  0.23537805  0.26656909  0.26766585    -0.73900
O45         O  0.18944617  0.22204717  0.32840628    -0.62600
O46         O  0.28048615  0.31262331  0.32836916    -0.71000
O47         O  0.30901345  0.28341113  0.33013978    -0.70500
O48         O  0.21867886  0.19358289  0.32992332    -0.61800
O49         O  0.26435030  0.23786493  0.26994084    -0.74300
O50         O  0.26361604  0.23919054  0.39016462    -0.73100
Cu51       Cu  0.23391572  0.26834952  0.32839272     1.04600
Cu52       Cu  0.26485830  0.23756593  0.33005748     1.04300
C53         C  0.24890798  0.25356200  0.40893871     0.93200
C54         C  0.25009372  0.25180224  0.24955101     0.92400
C55         C  0.18969963  0.19334229  0.32922836     0.84500
C56         C  0.30922052  0.31227774  0.32942625     0.90800
O57         O  0.02804606  0.46795641  0.00257909    -0.73000
O58         O  0.43694886  0.46643155  0.00403713    -0.73900
O59         O  0.48122413  0.46576353  0.94294274    -0.62600
O60         O  0.48395470  0.46877112  0.06366522    -0.71000
O61         O  0.01069512  0.02641916  0.06199317    -0.70500
O62         O  0.01056730  0.02355494  0.94159731    -0.61800
O63         O  0.46492587  0.02409618  0.00137068    -0.74300
O64         O  0.05612034  0.02563544  0.00224547    -0.73100
Cu65       Cu  0.48154577  0.46521607  0.00337962     1.04600
Cu66       Cu  0.01152394  0.02691953  0.00173271     1.04300
C67         C  0.05659042  0.49698942  0.00219471     0.93200
C68         C  0.43643087  0.49493804  0.00278903     0.92400
C69         C  0.99593247  0.49421131  0.92320672     0.84500
C70         C  0.49749678  0.49806804  0.08188362     0.90800
O71         O  0.49325389  0.22634832  0.93911071    -0.73000
O72         O  0.49173429  0.22530992  0.05971785    -0.73900
O73         O  0.44617009  0.22404167  0.99828372    -0.62600
O74         O  0.03811212  0.22768786  0.00001883    -0.71000
O75         O  0.06611964  0.28526465  0.00104757    -0.70500
O76         O  0.47381223  0.28158869  0.99816059    -0.61800
O77         O  0.01865737  0.28297571  0.06034859    -0.74300
O78         O  0.02135811  0.28396891  0.93916479    -0.73100
Cu79       Cu  0.49136777  0.22388205  0.99927996     1.04600
Cu80       Cu  0.02090965  0.28550456  0.99974940     1.04300
C81         C  0.00778394  0.25514171  0.91992433     0.93200
C82         C  0.00508050  0.25403679  0.07919227     0.92400
C83         C  0.44538651  0.25243309  0.99760295     0.84500
C84         C  0.06661922  0.25672584  0.00070812     0.90800
O85         O  0.27724968  0.46685711  0.00131869    -0.73000
O86         O  0.18710625  0.46727330  0.00140794    -0.73900
O87         O  0.23168550  0.46581885  0.94043443    -0.62600
O88         O  0.23310860  0.46860164  0.06164633    -0.71000
O89         O  0.26015476  0.02640996  0.06024855    -0.70500
O90         O  0.26165326  0.02339612  0.93975507    -0.61800
O91         O  0.21565418  0.02486528  0.99845053    -0.74300
O92         O  0.30589005  0.02453120  0.00194827    -0.73100
Cu93       Cu  0.23122525  0.46510764  0.00120726     1.04600
Cu94       Cu  0.26182920  0.02678413  0.99996656     1.04300
C95         C  0.30596610  0.49568924  0.00229708     0.93200
C96         C  0.18697019  0.49598120  0.00021347     0.92400
C97         C  0.24712649  0.49438661  0.92087765     0.84500
C98         C  0.24646824  0.49783851  0.08001985     0.90800
O99         O  0.23758748  0.22256132  0.93539656    -0.73000
O100        O  0.23959023  0.22062857  0.05623635    -0.73900
O101        O  0.19446983  0.22322756  0.99774515    -0.62600
O102        O  0.28344542  0.22023145  0.99408784    -0.71000
O103        O  0.31288321  0.27775021  0.99748204    -0.70500
O104        O  0.22425820  0.28079557  0.99671532    -0.61800
O105        O  0.26724738  0.27840433  0.05722184    -0.74300
O106        O  0.26934199  0.28016185  0.93663597    -0.73100
Cu107      Cu  0.23774755  0.21960195  0.99577137     1.04600
Cu108      Cu  0.26956206  0.28125509  0.99703249     1.04300
C109        C  0.25308668  0.25165757  0.91694795     0.93200
C110        C  0.25288139  0.24932828  0.07564713     0.92400
C111        C  0.19517800  0.25238037  0.99782762     0.84500
C112        C  0.31246339  0.24876114  0.99567794     0.90800
O113        O  0.46926980  0.48092969  0.73067055    -0.73000
O114        O  0.46590580  0.48225056  0.60976844    -0.73900
O115        O  0.46794793  0.43642612  0.66886530    -0.62600
O116        O  0.46775455  0.02690913  0.67209808    -0.71000
O117        O  0.02540487  0.05527779  0.66909022    -0.70500
O118        O  0.02565344  0.46516941  0.66923150    -0.61800
O119        O  0.02365057  0.00923033  0.60854277    -0.74300
O120        O  0.02703196  0.01098617  0.72944955    -0.73100
Cu121      Cu  0.46569197  0.48059879  0.67043024     1.04600
Cu122      Cu  0.02740879  0.01116232  0.66896846     1.04300
C123        C  0.99847477  0.49571990  0.74921520     0.93200
C124        C  0.99446472  0.49602548  0.59000728     0.92400
C125        C  0.99682244  0.43642323  0.66925103     0.84500
C126        C  0.99669243  0.05556065  0.67068418     0.90800
O127        O  0.47173395  0.27856955  0.67020908    -0.73000
O128        O  0.47220781  0.18869647  0.66724610    -0.73900
O129        O  0.47544783  0.23415501  0.72886665    -0.62600
O130        O  0.46912166  0.23329005  0.60776732    -0.71000
O131        O  0.02681073  0.26126050  0.60560939    -0.70500
O132        O  0.03324268  0.26484616  0.72556269    -0.61800
O133        O  0.02992307  0.21738295  0.66572077    -0.74300
O134        O  0.02934491  0.30776597  0.66595260    -0.73100
Cu135      Cu  0.47010222  0.23265817  0.66861720     1.04600
Cu136      Cu  0.03182070  0.26377645  0.66547356     1.04300
C137        C  0.00037267  0.30744474  0.66877587     0.93200
C138        C  0.00104270  0.18862209  0.66677079     0.92400
C139        C  0.00524232  0.24992862  0.74614621     0.84500
C140        C  0.99744479  0.24717821  0.58744152     0.90800
O141        O  0.28075655  0.47132633  0.66629774    -0.73000
O142        O  0.27870113  0.06059724  0.66773462    -0.73900
O143        O  0.27957041  0.01541336  0.72762711    -0.62600
O144        O  0.27978504  0.01608319  0.60659966    -0.71000
O145        O  0.22181843  0.48840355  0.60665948    -0.70500
O146        O  0.22188556  0.48411564  0.72734337    -0.61800
O147        O  0.22101296  0.03126674  0.66956011    -0.74300
O148        O  0.22303011  0.44191354  0.66437992    -0.73100
Cu149      Cu  0.28172717  0.01693403  0.66710499     1.04600
Cu150      Cu  0.21992146  0.48542467  0.66700789     1.04300
C151        C  0.25216378  0.44239798  0.66487544     0.93200
C152        C  0.24964557  0.06024504  0.66906067     0.92400
C153        C  0.25078286  0.49915335  0.74652272     0.84500
C154        C  0.25068147  0.50236546  0.58752760     0.90800
O155        O  0.27990284  0.31121168  0.66151254    -0.73000
O156        O  0.27981494  0.22079601  0.66432964    -0.73900
O157        O  0.27904054  0.26454713  0.60231745    -0.62600
O158        O  0.28071029  0.26771067  0.72317266    -0.71000
O159        O  0.22294850  0.23798978  0.72392828    -0.70500
O160        O  0.22123340  0.23687815  0.60288951    -0.61800
O161        O  0.22210683  0.19193629  0.66406090    -0.74300
O162        O  0.22220022  0.28237727  0.66337774    -0.73100
Cu163      Cu  0.28186551  0.26702283  0.66273959     1.04600
Cu164      Cu  0.22011147  0.23625778  0.66353680     1.04300
C165        C  0.25099044  0.31113794  0.66250034     0.93200
C166        C  0.25103030  0.19198832  0.66492021     0.92400
C167        C  0.24996606  0.25072117  0.58345567     0.84500
C168        C  0.25205512  0.25332611  0.74272954     0.90800
C169        C  0.25246975  0.40913635  0.66409207    -0.05500
C170        C  0.22117719  0.37787279  0.67043392    -0.32900
C171        C  0.22019602  0.34590592  0.66980135     0.36300
C172        C  0.25098668  0.34457570  0.66285287    -0.05800
C173        C  0.28233740  0.37585755  0.65654881    -0.32800
C174        C  0.28331813  0.40788469  0.65726438     0.36200
H175        H  0.19717618  0.37806958  0.67619884     0.16600
O176        O  0.18905022  0.31627665  0.67708469    -0.60300
H177        H  0.30633849  0.37562386  0.65092793     0.16600
O178        O  0.31443738  0.43761656  0.65019005    -0.60400
H179        H  0.32694627  0.44356593  0.67640471     0.43600
H180        H  0.17702370  0.30953527  0.65058571     0.43600
C181        C  0.24952288  0.09373497  0.66946968    -0.05500
C182        C  0.28118497  0.12508803  0.66516001    -0.32900
C183        C  0.28218207  0.15710035  0.66390994     0.36300
C184        C  0.25104659  0.15847556  0.66682970    -0.05800
C185        C  0.21941916  0.12717698  0.67190826    -0.32800
C186        C  0.21848149  0.09515252  0.67359291     0.36200
H187        H  0.30550732  0.12494767  0.66236921     0.16600
O188        O  0.31390276  0.18682951  0.66004488    -0.60300
H189        H  0.19514662  0.12740275  0.67481293     0.16600
O190        O  0.18696470  0.06548581  0.67902494    -0.60400
H191        H  0.18364165  0.06308514  0.70866981     0.43600
H192        H  0.31865032  0.18944818  0.63065403     0.43600
C193        C  0.99971269  0.34053514  0.67016609    -0.05500
C194        C  0.46810199  0.34006326  0.66380145    -0.32900
C195        C  0.46664525  0.37084571  0.66360836     0.36300
C196        C  0.99718784  0.40312603  0.66997390    -0.05800
C197        C  0.02870307  0.40351066  0.67728667    -0.32800
C198        C  0.03009572  0.37268048  0.67776168     0.36200
H199        H  0.44429146  0.31571591  0.65833511     0.16600
O200        O  0.43510928  0.36888845  0.65703021    -0.60300
H201        H  0.05248725  0.42782977  0.68296515     0.16600
O202        O  0.06133441  0.37441594  0.68586472    -0.60400
H203        H  0.06149823  0.37133194  0.71547500     0.43600
H204        H  0.43337530  0.37033674  0.62734666     0.43600
C205        C  0.99733860  0.08938471  0.67041788    -0.05500
C206        C  0.02955366  0.12047220  0.66839597    -0.32900
C207        C  0.03133940  0.15286120  0.66728099     0.36300
C208        C  0.00048015  0.15483452  0.66789556    -0.05800
C209        C  0.46825625  0.12372746  0.67027236    -0.32800
C210        C  0.46647271  0.09134763  0.67144941     0.36200
H211        H  0.05370618  0.11983947  0.66756030     0.16600
O212        O  0.06346120  0.18228680  0.66498939    -0.60300
H213        H  0.44409693  0.12434373  0.67120688     0.16600
O214        O  0.43435312  0.06193557  0.67404725    -0.60400
H215        H  0.42594652  0.05608102  0.64581740     0.43600
H216        H  0.07171336  0.18796609  0.69329048     0.43600
C217        C  0.25230634  0.25245346  0.87252025    -0.05500
C218        C  0.28141544  0.27780752  0.85157143    -0.32900
C219        C  0.28169694  0.27865990  0.80938566     0.36300
C220        C  0.25238144  0.25394528  0.78738118    -0.05800
C221        C  0.22288712  0.22923294  0.80852264    -0.32800
C222        C  0.22270341  0.22833280  0.85067551     0.36200
H223        H  0.30428507  0.29674952  0.86795730     0.16600
O224        O  0.31078293  0.30377519  0.79010857    -0.60300
H225        H  0.19993995  0.21018971  0.79235290     0.16600
O226        O  0.19330214  0.20397807  0.87019633    -0.60400
H227        H  0.17919053  0.21538496  0.87481502     0.43600
H228        H  0.30695329  0.32388908  0.78742604     0.43600
C229        C  0.24839969  0.49443066  0.87613167    -0.05500
C230        C  0.27242927  0.02489509  0.85613295    -0.32900
C231        C  0.27377387  0.02655151  0.81403692     0.36300
C232        C  0.25066872  0.49757632  0.79094861    -0.05800
C233        C  0.22681908  0.46684354  0.81065843    -0.32800
C234        C  0.22573416  0.46497335  0.85287391     0.36200
H235        H  0.29044772  0.04776211  0.87316003     0.16600
O236        O  0.29744653  0.05699802  0.79579026    -0.60300
H237        H  0.20905817  0.44410795  0.79324031     0.16600
O238        O  0.20229320  0.43431553  0.87089884    -0.60400
H239        H  0.18044702  0.43528667  0.87320235     0.43600
H240        H  0.28468955  0.06975523  0.79089673     0.43600
C241        C  0.41138265  0.25149165  0.99628068    -0.05500
C242        C  0.38011528  0.21942688  0.99822175    -0.32900
C243        C  0.34769722  0.21787677  0.99794691     0.36300
C244        C  0.34601887  0.24878524  0.99548805    -0.05800
C245        C  0.37727653  0.28071663  0.99311674    -0.32800
C246        C  0.40956502  0.28227428  0.99321841     0.36200
H247        H  0.38067155  0.19534066  0.00031492     0.16600
O248        O  0.31797325  0.18599044  0.00006913    -0.60300
H249        H  0.37687749  0.30488096  0.99100042     0.16600
O250        O  0.43913219  0.31423768  0.99061818    -0.60400
H251        H  0.44383536  0.31843630  0.96132127     0.43600
H252        H  0.31363923  0.18101986  0.02930180     0.43600
C253        C  0.10001589  0.25660485  0.00083364    -0.05500
C254        C  0.09904969  0.22447296  0.00074692    -0.32900
C255        C  0.12958983  0.22266220  0.00042278     0.36300
C256        C  0.16226927  0.25342256  0.99931222    -0.05800
C257        C  0.16337484  0.28567797  0.99989200    -0.32800
C258        C  0.13268216  0.28747979  0.00073208     0.36200
H259        H  0.07439944  0.20030513  0.00107460     0.16600
O260        O  0.12693973  0.19051468  0.00082396    -0.60300
H261        H  0.18812931  0.30974214  0.99967314     0.16600
O262        O  0.13508183  0.31951722  0.00206898    -0.60400
H263        H  0.13874204  0.32766680  0.97372238     0.43600
H264        H  0.12491265  0.18403773  0.02972105     0.43600
C265        C  0.00852841  0.25451668  0.87523756    -0.05500
C266        C  0.98880459  0.22256621  0.85504158    -0.32900
C267        C  0.98807114  0.22077513  0.81300674     0.36300
C268        C  0.00728475  0.25113303  0.79030163    -0.05800
C269        C  0.52795819  0.28292215  0.81005133    -0.32800
C270        C  0.52853377  0.28487699  0.85223194     0.36200
H271        H  0.97351162  0.19875946  0.87180869     0.16600
O272        O  0.96860187  0.18915885  0.79435607    -0.60300
H273        H  0.54296459  0.30646761  0.79269491     0.16600
O274        O  0.54822251  0.31666743  0.87040918    -0.60400
H275        H  0.57155489  0.31909288  0.87437213     0.43600
H276        H  0.98497742  0.18032764  0.78977058     0.43600
C277        C  0.33939274  0.49561483  0.00336510    -0.05500
C278        C  0.33966431  0.46460530  0.99548810    -0.32900
C279        C  0.37089293  0.46387186  0.99522914     0.36300
C280        C  0.40276631  0.49452485  0.00312853    -0.05800
C281        C  0.40241560  0.02551403  0.01131768    -0.32800
C282        C  0.37119302  0.02619286  0.01181216     0.36200
H283        H  0.31560665  0.44079006  0.98893578     0.16600
O284        O  0.36982217  0.43305032  0.98687871    -0.60300
H285        H  0.42646702  0.04934113  0.01784915     0.16600
O286        O  0.37224184  0.05688860  0.02085473    -0.60400
H287        H  0.36908864  0.05648762  0.05050744     0.43600
H288        H  0.37269337  0.43292483  0.95722065     0.43600
C289        C  0.09019709  0.49726838  0.00186355    -0.05500
C290        C  0.09060639  0.46648842  0.01047327    -0.32900
C291        C  0.12179993  0.46573285  0.01062192     0.36300
C292        C  0.15349601  0.49599525  0.00116903    -0.05800
C293        C  0.15314932  0.02699570  0.99329368    -0.32800
C294        C  0.12197061  0.02782501  0.99346159     0.36200
H295        H  0.06665978  0.44284212  0.01769662     0.16600
O296        O  0.12085678  0.43524340  0.02037320    -0.60300
H297        H  0.17715375  0.05073157  0.98652860     0.16600
O298        O  0.12304270  0.05862806  0.98521937    -0.60400
H299        H  0.12061453  0.05889554  0.95549824     0.43600
H300        H  0.12325262  0.43581158  0.05015909     0.43600
C301        C  0.99671930  0.49361631  0.87881679    -0.05500
C302        C  0.02574316  0.01997485  0.85846431    -0.32900
C303        C  0.02731909  0.02037866  0.81633338     0.36300
C304        C  0.99889750  0.49489515  0.79378007    -0.05800
C305        C  0.47001947  0.46856889  0.81424947    -0.32800
C306        C  0.46901593  0.46747550  0.85639242     0.36200
H307        H  0.04746885  0.04009811  0.87532522     0.16600
O308        O  0.05612420  0.04645266  0.79764901    -0.60300
H309        H  0.44806734  0.44861369  0.79752809     0.16600
O310        O  0.44012254  0.44167917  0.87526727    -0.60400
H311        H  0.44387801  0.42142833  0.87609624     0.43600
H312        H  0.07340324  0.03839899  0.79722929     0.43600
C313        C  0.24894669  0.25347730  0.45363262    -0.05500
C314        C  0.27488208  0.25007362  0.47417253    -0.32900
C315        C  0.27565386  0.24943795  0.51632694     0.36300
C316        C  0.24963051  0.25122553  0.53886793    -0.05800
C317        C  0.22339882  0.25418369  0.51844581    -0.32800
C318        C  0.22320816  0.25585601  0.47621857     0.36200
H319        H  0.29492381  0.24816231  0.45750588     0.16600
O320        O  0.30118142  0.24564611  0.53513962    -0.60300
H321        H  0.20325282  0.25576103  0.53529939     0.16600
O322        O  0.19701664  0.25849217  0.45738382    -0.60400
H323        H  0.20460728  0.28363932  0.45793058     0.43600
H324        H  0.32192505  0.26930452  0.53578546     0.43600
C325        C  0.25057587  0.25061039  0.20478579    -0.05500
C326        C  0.23344280  0.26445394  0.18213774    -0.32900
C327        C  0.23382310  0.26385147  0.13994640     0.36300
C328        C  0.25124257  0.24906500  0.11975744    -0.05800
C329        C  0.26780748  0.23469895  0.14191683    -0.32800
C330        C  0.26792266  0.23565308  0.18407466     0.36200
H331        H  0.21980244  0.27591804  0.19708077     0.16600
O332        O  0.21710454  0.27778340  0.11867272    -0.60300
H333        H  0.28146931  0.22347677  0.12645758     0.16600
O334        O  0.28606424  0.22286498  0.20452732    -0.60400
H335        H  0.26984830  0.19745900  0.20648150     0.43600
H336        H  0.19463113  0.25760218  0.10997492     0.43600
C337        C  0.24799858  0.50205005  0.45798563    -0.05500
C338        C  0.27311852  0.49727580  0.47845770    -0.32900
C339        C  0.27475449  0.49804800  0.52058743     0.36300
C340        C  0.25037161  0.50263830  0.54308158    -0.05800
C341        C  0.22518789  0.00704165  0.52275376    -0.32800
C342        C  0.22423551  0.00740682  0.48057861     0.36200
H343        H  0.29184640  0.49320622  0.46178172     0.16600
O344        O  0.29928005  0.49270886  0.53947368    -0.60300
H345        H  0.20626703  0.01064975  0.53966457     0.16600
O346        O  0.19908156  0.01188767  0.46191071    -0.60400
H347        H  0.20849094  0.03739513  0.46158688     0.43600
H348        H  0.32100397  0.51563414  0.53916201     0.43600
C349        C  0.24770071  0.49941584  0.20958120    -0.05500
C350        C  0.24185312  0.52332049  0.18804804    -0.32900
C351        C  0.24138726  0.52313484  0.14583815     0.36300
C352        C  0.24667212  0.49869374  0.12442583    -0.05800
C353        C  0.25007716  0.97340999  0.14588863    -0.32800
C354        C  0.25058265  0.97353787  0.18803285     0.36200
H355        H  0.23770330  0.54232371  0.20393170     0.16600
O356        O  0.23515814  0.54655700  0.12587226    -0.60300
H357        H  0.25246365  0.95338335  0.12984703     0.16600
O358        O  0.25353434  0.94794943  0.20767189    -0.60400
H359        H  0.22923595  0.92880598  0.21153418     0.43600
H360        H  0.20970389  0.53404096  0.12051741     0.43600
C361        C  0.99524518  0.24866269  0.45748749    -0.05500
C362        C  0.02606967  0.25693429  0.47798512    -0.32900
C363        C  0.02703730  0.25641262  0.52000535     0.36300
C364        C  0.99661182  0.24727087  0.54265759    -0.05800
C365        C  0.46544995  0.23855585  0.52195321    -0.32800
C366        C  0.46469920  0.23947762  0.47964150     0.36200
H367        H  0.04973456  0.26407635  0.46125708     0.16600
O368        O  0.05804473  0.26489958  0.53845515    -0.60300
H369        H  0.44167525  0.23116489  0.53852302     0.16600
O370        O  0.43375134  0.22967471  0.46023312    -0.60400
H371        H  0.43171373  0.25093435  0.45936278     0.43600
H372        H  0.05803116  0.24262142  0.54101306     0.43600
C373        C  0.34144968  0.09270379  0.33494641    -0.05500
C374        C  0.34241108  0.12365245  0.34657501    -0.32900
C375        C  0.37379606  0.15534621  0.34692492     0.36300
C376        C  0.40505120  0.15672972  0.33480400    -0.05800
C377        C  0.40424757  0.12569338  0.32416596    -0.32800
C378        C  0.37290884  0.09397355  0.32400497     0.36200
H379        H  0.31876334  0.12331891  0.35582349     0.16600
O380        O  0.37354563  0.18469386  0.35956072    -0.60300
H381        H  0.42793778  0.12601942  0.31513178     0.16600
O382        O  0.37341359  0.06450242  0.31253346    -0.60400
H383        H  0.37031002  0.06317542  0.28282683     0.43600
H384        H  0.37909619  0.18669761  0.38878182     0.43600
C385        C  0.15393497  0.40781915  0.33481638    -0.05500
C386        C  0.15407711  0.37691968  0.34379379    -0.32900
C387        C  0.12307357  0.34488004  0.34497042     0.36300
C388        C  0.09092801  0.34296840  0.33626074    -0.05800
C389        C  0.09071201  0.37391541  0.32786418    -0.32800
C390        C  0.12169105  0.40602237  0.32709198     0.36200
H391        H  0.17834739  0.37751337  0.35042879     0.16600
O392        O  0.12464823  0.31570300  0.35493596    -0.60300
H393        H  0.06641511  0.37330310  0.32135043     0.16600
O394        O  0.11996837  0.43539137  0.31871648    -0.60400
H395        H  0.12069668  0.43711338  0.28887582     0.43600
H396        H  0.12260947  0.31416876  0.38475016     0.43600
C397        C  0.00260043  0.25083321  0.20914341    -0.05500
C398        C  0.50119623  0.27774783  0.18844129    -0.32900
C399        C  0.50257481  0.27941439  0.14627575     0.36300
C400        C  0.00476500  0.25356413  0.12382554    -0.05800
C401        C  0.00618054  0.22664879  0.14440052    -0.32800
C402        C  0.00573527  0.22545827  0.18665590     0.36200
H403        H  0.49926257  0.29779405  0.20502420     0.16600
O404        O  0.50127337  0.30620460  0.12735331    -0.60300
H405        H  0.00802842  0.20660900  0.12767358     0.16600
O406        O  0.00715461  0.19870003  0.20550394    -0.60400
H407        H  0.03232147  0.20615956  0.20703167     0.43600
H408        H  0.47613271  0.29764357  0.12270223     0.43600
C409        C  0.99415473  0.49662957  0.54538798    -0.05500
C410        C  0.02027652  0.49414787  0.52431180    -0.32900
C411        C  0.02165000  0.49543130  0.48219458     0.36300
C412        C  0.99711596  0.50025637  0.46006379    -0.05800
C413        C  0.47089850  0.00283762  0.48122179    -0.32800
C414        C  0.46899912  0.00057230  0.52349842     0.36200
H415        H  0.03972828  0.49093784  0.54059879     0.16600
O416        O  0.04793934  0.49315015  0.46312573    -0.60300
H417        H  0.45162542  0.00633498  0.46495337     0.16600
O418        O  0.44355279  0.00395074  0.54312508    -0.60400
H419        H  0.42252296  0.98050479  0.54209410     0.43600
H420        H  0.03977784  0.46790367  0.46148607     0.43600
C421        C  0.40652026  0.40942087  0.33171097    -0.05500
C422        C  0.40534371  0.37850838  0.34356527    -0.32900
C423        C  0.37403432  0.34677439  0.34270077     0.36300
C424        C  0.34292293  0.34542523  0.32990863    -0.05800
C425        C  0.34420711  0.37626870  0.31743472    -0.32800
C426        C  0.37557310  0.40799312  0.31811283     0.36200
H427        H  0.42871549  0.37891615  0.35416288     0.16600
O428        O  0.37401300  0.31750367  0.35597135    -0.60300
H429        H  0.32084178  0.37583216  0.30675814     0.16600
O430        O  0.37582504  0.43718164  0.30405854    -0.60400
H431        H  0.36772363  0.44570337  0.32699548     0.43600
H432        H  0.38109262  0.30878504  0.33228676     0.43600
C433        C  0.15629439  0.15967180  0.32964574    -0.05500
C434        C  0.12450575  0.15929887  0.32526829    -0.32900
C435        C  0.09261967  0.12803901  0.32624246     0.36300
C436        C  0.09187088  0.09613847  0.33236048    -0.05800
C437        C  0.12367945  0.09649201  0.33596275    -0.32800
C438        C  0.15553464  0.12767817  0.33473931     0.36200
H439        H  0.12423033  0.18335587  0.32089996     0.16600
O440        O  0.06243026  0.12917001  0.32119461    -0.60300
H441        H  0.12401237  0.07244940  0.34015777     0.16600
O442        O  0.18572074  0.12635662  0.33855198    -0.60400
H443        H  0.19008991  0.12728923  0.36799858     0.43600
H444        H  0.05840104  0.12760617  0.29163584     0.43600
C445        C  0.49787801  0.49909713  0.12628259    -0.05500
C446        C  0.50098710  0.47363499  0.14786173    -0.32900
C447        C  0.50174397  0.47411971  0.19002189     0.36300
C448        C  0.49887622  0.50017012  0.21134194    -0.05800
C449        C  0.99490137  0.02513883  0.18963662    -0.32800
C450        C  0.99462854  0.02490889  0.14746242     0.36200
H451        H  0.50311329  0.45338619  0.13198437     0.16600
O452        O  0.50376533  0.44813483  0.21000525    -0.60300
H453        H  0.99224053  0.04511856  0.20539084     0.16600
O454        O  0.98959740  0.04903269  0.12730712    -0.60400
H455        H  0.01273004  0.07052239  0.12710921     0.43600
H456        H  0.52885461  0.45518190  0.20985517     0.43600
O457        O  0.43979508  0.97140350  0.33368839    -0.73000
O458        O  0.02948119  0.56204103  0.33560848    -0.73900
O459        O  0.48553780  0.51664733  0.27456494    -0.62600
O460        O  0.48339327  0.51588687  0.39606539    -0.71000
O461        O  0.01382656  0.98856493  0.39595882    -0.70500
O462        O  0.01379493  0.98710519  0.27546722    -0.61800
O463        O  0.05901330  0.53385380  0.33493808    -0.74300
O464        O  0.46879796  0.94265269  0.33561930    -0.73100
Cu465      Cu  0.48358805  0.51754234  0.33508351     1.04600
Cu466      Cu  0.01494553  0.98712516  0.33564666     1.04300
C467        C  0.43994857  0.94270825  0.33376590     0.93200
C468        C  0.05854246  0.56246810  0.33446527     0.92400
C469        C  0.49945093  0.00138473  0.25590127     0.84500
C470        C  0.99824463  0.50178912  0.41526712     0.90800
O471        O  0.46742798  0.68985306  0.33425502    -0.73000
O472        O  0.05795240  0.78054901  0.33519775    -0.73900
O473        O  0.01172439  0.73566533  0.39470053    -0.62600
O474        O  0.01395152  0.73455557  0.27395005    -0.71000
O475        O  0.48603977  0.76442262  0.27229353    -0.70500
O476        O  0.48095452  0.76280397  0.39357157    -0.61800
O477        O  0.02869904  0.80904768  0.33497821    -0.74300
O478        O  0.43847886  0.71864781  0.33152306    -0.73100
Cu479      Cu  0.01376081  0.73414223  0.33453697     1.04600
Cu480      Cu  0.48252895  0.76473517  0.33291590     1.04300
C481        C  0.43857379  0.68994788  0.33348708     0.93200
C482        C  0.05768308  0.80923680  0.33563236     0.92400
C483        C  0.99573777  0.74887350  0.41317670     0.84500
C484        C  0.00072934  0.74973592  0.25391403     0.90800
O485        O  0.27904421  0.56022722  0.33459746    -0.73000
O486        O  0.18777441  0.97021381  0.33281667    -0.73900
O487        O  0.23249744  0.51517154  0.39390735    -0.62600
O488        O  0.23419268  0.51552115  0.27301371    -0.71000
O489        O  0.26140390  0.98494942  0.27387318    -0.70500
O490        O  0.26216724  0.98690387  0.39447420    -0.61800
O491        O  0.21627395  0.94100715  0.33494394    -0.74300
O492        O  0.30715023  0.53057958  0.33389821    -0.73100
Cu493      Cu  0.23234679  0.51631663  0.33349261     1.04600
Cu494      Cu  0.26272887  0.98485098  0.33423235     1.04300
C495        C  0.30763658  0.55960187  0.33450448     0.93200
C496        C  0.18753544  0.94128847  0.33411038     0.92400
C497        C  0.24748978  0.00128433  0.41335958     0.84500
C498        C  0.24781594  0.00000861  0.25428847     0.90800
O499        O  0.23444593  0.76782634  0.38928524    -0.73000
O500        O  0.23542961  0.76657804  0.26764617    -0.73900
O501        O  0.18945163  0.72206228  0.32834699    -0.62600
O502        O  0.28050684  0.81260841  0.32836842    -0.71000
O503        O  0.30902992  0.78339127  0.33017254    -0.70500
O504        O  0.21866940  0.69358334  0.32987076    -0.61800
O505        O  0.26439708  0.73786857  0.26992648    -0.74300
O506        O  0.26357565  0.73916094  0.39015398    -0.73100
Cu507      Cu  0.23393195  0.76834971  0.32836338     1.04600
Cu508      Cu  0.26486123  0.73755242  0.33004810     1.04300
C509        C  0.24887073  0.75354166  0.40891652     0.93200
C510        C  0.25015143  0.75181619  0.24953468     0.92400
C511        C  0.18969508  0.69335298  0.32916075     0.84500
C512        C  0.30923803  0.81225877  0.32944975     0.90800
O513        O  0.02801842  0.96803036  0.00254907    -0.73000
O514        O  0.43694950  0.96653694  0.00400987    -0.73900
O515        O  0.48126300  0.96591973  0.94293297    -0.62600
O516        O  0.48392103  0.96883805  0.06364884    -0.71000
O517        O  0.01079328  0.52641438  0.06197551    -0.70500
O518        O  0.01054500  0.52343542  0.94159383    -0.61800
O519        O  0.46493265  0.52399109  0.00138033    -0.74300
O520        O  0.05615165  0.52556311  0.00219818    -0.73100
Cu521      Cu  0.48154435  0.96532709  0.00336224     1.04600
Cu522      Cu  0.01156221  0.52685663  0.00171815     1.04300
C523        C  0.05656274  0.99706314  0.00220235     0.93200
C524        C  0.43642583  0.99503965  0.00276793     0.92400
C525        C  0.99597112  0.99433891  0.92319150     0.84500
C526        C  0.49744800  0.99812415  0.08188819     0.90800
O527        O  0.49318520  0.72634512  0.93913462    -0.73000
O528        O  0.49176474  0.72531407  0.05974886    -0.73900
O529        O  0.44615396  0.72405509  0.99834103    -0.62600
O530        O  0.03806448  0.72762249  0.99998160    -0.71000
O531        O  0.06606644  0.78519878  0.00102591    -0.70500
O532        O  0.47380135  0.78160284  0.99821397    -0.61800
O533        O  0.01864710  0.78291356  0.06039369    -0.74300
O534        O  0.02127249  0.78391454  0.93921130    -0.73100
Cu535      Cu  0.49134811  0.72388418  0.99930053     1.04600
Cu536      Cu  0.02086082  0.78544428  0.99979061     1.04300
C537        C  0.00768521  0.75508971  0.91996682     0.93200
C538        C  0.00508793  0.75397660  0.07924044     0.92400
C539        C  0.44537530  0.75244898  0.99762762     0.84500
C540        C  0.06657057  0.75666275  0.00063564     0.90800
O541        O  0.27723089  0.96692984  0.00132944    -0.73000
O542        O  0.18708770  0.96733980  0.00147442    -0.73900
O543        O  0.23159060  0.96581915  0.94047205    -0.62600
O544        O  0.23314377  0.96876047  0.06168595    -0.71000
O545        O  0.25994839  0.52626418  0.06028614    -0.70500
O546        O  0.26181223  0.52339262  0.93978268    -0.61800
O547        O  0.21566735  0.52479948  0.99832699    -0.74300
O548        O  0.30589633  0.52445750  0.00214173    -0.73100
Cu549      Cu  0.23120341  0.96518296  0.00125092     1.04600
Cu550      Cu  0.26182704  0.52671421  0.00000346     1.04300
C551        C  0.30595208  0.99576164  0.00219803     0.93200
C552        C  0.18695166  0.99604666  0.00030489     0.92400
C553        C  0.24696829  0.99437440  0.92088455     0.84500
C554        C  0.24663280  0.99801501  0.08004695     0.90800
O555        O  0.23760933  0.72261290  0.93537941    -0.73000
O556        O  0.23963459  0.72069693  0.05621641    -0.73900
O557        O  0.19449672  0.72327182  0.99771642    -0.62600
O558        O  0.28346597  0.72029426  0.99404954    -0.71000
O559        O  0.31290857  0.77781357  0.99745115    -0.70500
O560        O  0.22426066  0.78083949  0.99665269    -0.61800
O561        O  0.26726248  0.77847133  0.05719244    -0.74300
O562        O  0.26937359  0.78021410  0.93659993    -0.73100
Cu563      Cu  0.23777639  0.71966087  0.99574997     1.04600
Cu564      Cu  0.26958052  0.78131430  0.99699675     1.04300
C565        C  0.25311631  0.75170443  0.91692268     0.93200
C566        C  0.25292080  0.74939785  0.07562436     0.92400
C567        C  0.19518631  0.75241452  0.99774526     0.84500
C568        C  0.31248390  0.74882214  0.99562241     0.90800
O569        O  0.46928471  0.98101368  0.73069105    -0.73000
O570        O  0.46586906  0.98220908  0.60977913    -0.73900
O571        O  0.46789800  0.93642215  0.66895412    -0.62600
O572        O  0.46775321  0.52688527  0.67215193    -0.71000
O573        O  0.02540185  0.55527104  0.66914840    -0.70500
O574        O  0.02561423  0.96515591  0.66923852    -0.61800
O575        O  0.02368682  0.50925829  0.60856093    -0.74300
O576        O  0.02701072  0.51094093  0.72948051    -0.73100
Cu577      Cu  0.46567320  0.98061435  0.67044776     1.04600
Cu578      Cu  0.02742309  0.51116202  0.66899464     1.04300
C579        C  0.99850513  0.99579022  0.74920054     0.93200
C580        C  0.99442600  0.99599865  0.58999650     0.92400
C581        C  0.99677791  0.93641407  0.66928921     0.84500
C582        C  0.99668379  0.55554250  0.67075564     0.90800
O583        O  0.47166713  0.77853318  0.67020933    -0.73000
O584        O  0.47214713  0.68865397  0.66730450    -0.73900
O585        O  0.47534764  0.73412174  0.72888871    -0.62600
O586        O  0.46909863  0.73323642  0.60779665    -0.71000
O587        O  0.02676748  0.76120641  0.60569034    -0.70500
O588        O  0.03314658  0.76481553  0.72563296    -0.61800
O589        O  0.02984321  0.71734081  0.66582670    -0.74300
O590        O  0.02928272  0.80773429  0.66600068    -0.73100
Cu591      Cu  0.47003904  0.73261775  0.66864149     1.04600
Cu592      Cu  0.03174961  0.76373727  0.66555073     1.04300
C593        C  0.00031117  0.80741742  0.66880098     0.93200
C594        C  0.00096542  0.68857739  0.66687893     0.92400
C595        C  0.00513835  0.74990382  0.74620144     0.84500
C596        C  0.99740877  0.74710002  0.58750734     0.90800
O597        O  0.28079466  0.97133044  0.66639030    -0.73000
O598        O  0.27868855  0.56061139  0.66771913    -0.73900
O599        O  0.27967102  0.51546945  0.72757401    -0.62600
O600        O  0.27966391  0.51606310  0.60655702    -0.71000
O601        O  0.22193965  0.98839534  0.60660118    -0.70500
O602        O  0.22178549  0.98408292  0.72728920    -0.61800
O603        O  0.22100351  0.53127653  0.66968480    -0.74300
O604        O  0.22306963  0.94190513  0.66439422    -0.73100
Cu605      Cu  0.28171046  0.51694559  0.66704914     1.04600
Cu606      Cu  0.21993860  0.98540890  0.66694547     1.04300
C607        C  0.25220812  0.94239918  0.66496250     0.93200
C608        C  0.24963263  0.56025440  0.66913846     0.92400
C609        C  0.25065399  0.99910099  0.74652526     0.84500
C610        C  0.25082707  0.00237977  0.58751760     0.90800
O611        O  0.27990368  0.81118813  0.66151719    -0.73000
O612        O  0.27973271  0.72075095  0.66428770    -0.73900
O613        O  0.27897508  0.76451574  0.60228892    -0.62600
O614        O  0.28068500  0.76766191  0.72313606    -0.71000
O615        O  0.22292299  0.73798336  0.72392129    -0.70500
O616        O  0.22116830  0.73685686  0.60287501    -0.61800
O617        O  0.22202437  0.69189924  0.66406502    -0.74300
O618        O  0.22219999  0.78238358  0.66338323    -0.73100
Cu619      Cu  0.28182010  0.76698260  0.66270859     1.04600
Cu620      Cu  0.22006557  0.73624342  0.66353022     1.04300
C621        C  0.25100307  0.81113378  0.66253985     0.93200
C622        C  0.25094698  0.69194873  0.66492448     0.92400
C623        C  0.24989785  0.75069646  0.58343391     0.84500
C624        C  0.25203802  0.75330041  0.74270779     0.90800
C625        C  0.25252671  0.90914548  0.66425306    -0.05500
C626        C  0.22124795  0.87789326  0.67069237    -0.32900
C627        C  0.22026377  0.84592623  0.67007631     0.36300
C628        C  0.25102664  0.84458140  0.66298050    -0.05800
C629        C  0.28237636  0.87585639  0.65664227    -0.32800
C630        C  0.28337102  0.90788944  0.65740709     0.36200
H631        H  0.19726277  0.87810102  0.67653316     0.16600
O632        O  0.18915177  0.81631383  0.67754908    -0.60300
H633        H  0.30636512  0.87561279  0.65096492     0.16600
O634        O  0.31449968  0.93762274  0.65037495    -0.60400
H635        H  0.32700678  0.94352285  0.67659033     0.43600
H636        H  0.17696569  0.80955986  0.65114513     0.43600
C637        C  0.24949802  0.59373522  0.66958991    -0.05500
C638        C  0.28114335  0.62508944  0.66520769    -0.32900
C639        C  0.28212091  0.65709014  0.66395998     0.36300
C640        C  0.25097629  0.65844733  0.66689705    -0.05800
C641        C  0.21936887  0.62715111  0.67208799    -0.32800
C642        C  0.21845835  0.59514134  0.67382705     0.36200
H643        H  0.30546799  0.62495979  0.66236930     0.16600
O644        O  0.31383501  0.68682847  0.66010144    -0.60300
H645        H  0.19509722  0.62737045  0.67505496     0.16600
O646        O  0.18697313  0.56547943  0.67944641    -0.60400
H647        H  0.18379139  0.56313583  0.70911218     0.43600
H648        H  0.31858589  0.68945519  0.63071195     0.43600
C649        C  0.99965512  0.84051321  0.67019752    -0.05500
C650        C  0.46802543  0.84003333  0.66392260    -0.32900
C651        C  0.46656702  0.87081688  0.66376445     0.36300
C652        C  0.99713363  0.90311019  0.67002894    -0.05800
C653        C  0.02865519  0.90349388  0.67728897    -0.32800
C654        C  0.03004655  0.87266238  0.67775533     0.36200
H655        H  0.44421100  0.81568660  0.65846942     0.16600
O656        O  0.43502318  0.86885916  0.65724974    -0.60300
H657        H  0.05244768  0.92781466  0.68292983     0.16600
O658        O  0.06129396  0.87440177  0.68581098    -0.60400
H659        H  0.06149490  0.87134333  0.71542243     0.43600
H660        H  0.43323558  0.87026574  0.62756832     0.43600
C661        C  0.99731533  0.58936142  0.67052295    -0.05500
C662        C  0.02951019  0.62044936  0.66824595    -0.32900
C663        C  0.03127623  0.65282958  0.66713093     0.36300
C664        C  0.00041640  0.65479536  0.66801918    -0.05800
C665        C  0.46822418  0.62369514  0.67053694    -0.32800
C666        C  0.46645465  0.59132051  0.67171525     0.36200
H667        H  0.05366091  0.61982279  0.66718563     0.16600
O668        O  0.06337522  0.68225191  0.66453424    -0.60300
H669        H  0.44406626  0.62430788  0.67161042     0.16600
O670        O  0.43435097  0.56190803  0.67448541    -0.60400
H671        H  0.42582278  0.55600768  0.64630259     0.43600
H672        H  0.07182103  0.68804077  0.69275772     0.43600
C673        C  0.25233497  0.75248337  0.87249760    -0.05500
C674        C  0.28147959  0.77776217  0.85153134    -0.32900
C675        C  0.28174906  0.77859296  0.80934484     0.36300
C676        C  0.25238599  0.75393175  0.78735950    -0.05800
C677        C  0.22286326  0.72929147  0.80852133    -0.32800
C678        C  0.22269142  0.72841468  0.85067415     0.36200
H679        H  0.30438240  0.79666085  0.86790444     0.16600
O680        O  0.31086973  0.80363531  0.79004875    -0.60300
H681        H  0.19988101  0.71029012  0.79236872     0.16600
O682        O  0.19326036  0.70413818  0.87021781    -0.60400
H683        H  0.17924099  0.71563845  0.87487364     0.43600
H684        H  0.30712904  0.82380485  0.78736653     0.43600
C685        C  0.24819868  0.99439628  0.87614213    -0.05500
C686        C  0.27251075  0.52499426  0.85612751    -0.32900
C687        C  0.27384646  0.52666133  0.81402774     0.36300
C688        C  0.25048237  0.99752189  0.79095801    -0.05800
C689        C  0.22649021  0.96685251  0.81067691    -0.32800
C690        C  0.22539682  0.96499291  0.85289672     0.36200
H691        H  0.29042781  0.54790544  0.87315869     0.16600
O692        O  0.29738161  0.55716802  0.79577861    -0.60300
H693        H  0.20863156  0.94415807  0.79326528     0.16600
O694        O  0.20181380  0.93440499  0.87093848    -0.60400
H695        H  0.18010696  0.93561720  0.87340787     0.43600
H696        H  0.28448581  0.56978660  0.79088529     0.43600
C697        C  0.41137750  0.75151342  0.99621826    -0.05500
C698        C  0.38010780  0.71946286  0.99829609    -0.32900
C699        C  0.34769663  0.71792460  0.99798216     0.36300
C700        C  0.34602982  0.74883278  0.99538038    -0.05800
C701        C  0.37728691  0.78074477  0.99280571    -0.32800
C702        C  0.40956812  0.78228654  0.99290622     0.36200
H703        H  0.38065755  0.69538077  0.00053450     0.16600
O704        O  0.31796763  0.68605015  0.00021337    -0.60300
H705        H  0.37689046  0.80490181  0.99052200     0.16600
O706        O  0.43913612  0.81422382  0.99003316    -0.60400
H707        H  0.44378891  0.81820094  0.96070323     0.43600
H708        H  0.31366099  0.68115970  0.02946271     0.43600
C709        C  0.09997427  0.75655416  0.00065521    -0.05500
C710        C  0.09902541  0.72443336  0.00002682    -0.32900
C711        C  0.12957734  0.72264303  0.99969645     0.36300
C712        C  0.16225803  0.75342488  0.99914073    -0.05800
C713        C  0.16334170  0.78566353  0.00018052    -0.32800
C714        C  0.13263372  0.78743804  0.00101320     0.36200
H715        H  0.07437940  0.70025676  0.99993090     0.16600
O716        O  0.12694020  0.69049854  0.99951281    -0.60300
H717        H  0.18809155  0.80973497  0.00036643     0.16600
O718        O  0.13500836  0.81945107  0.00284397    -0.60400
H719        H  0.13882283  0.82792213  0.97462561     0.43600
H720        H  0.12460662  0.68358136  0.02827690     0.43600
C721        C  0.00841354  0.75447307  0.87528255    -0.05500
C722        C  0.98868812  0.72252549  0.85508249    -0.32900
C723        C  0.98795911  0.72074080  0.81304877     0.36300
C724        C  0.00716771  0.75110404  0.79035242    -0.05800
C725        C  0.52781862  0.78290732  0.81007245    -0.32800
C726        C  0.52840247  0.78486841  0.85225016     0.36200
H727        H  0.97339922  0.69871542  0.87184534     0.16600
O728        O  0.96850904  0.68912491  0.79439031    -0.60300
H729        H  0.54281429  0.80645120  0.79270967     0.16600
O730        O  0.54808783  0.81666318  0.87041885    -0.60400
H731        H  0.57142139  0.81909234  0.87438574     0.43600
H732        H  0.98489265  0.68029960  0.78982985     0.43600
C733        C  0.33937819  0.99569230  0.00327662    -0.05500
C734        C  0.33964556  0.96466401  0.99553075    -0.32900
C735        C  0.37087647  0.96393558  0.99530339     0.36300
C736        C  0.40275589  0.99461525  0.00309764    -0.05800
C737        C  0.40242537  0.52540700  0.01146367    -0.32800
C738        C  0.37120421  0.52609122  0.01198618     0.36200
H739        H  0.31558270  0.94082867  0.98906192     0.16600
O740        O  0.36980016  0.93308979  0.98709739    -0.60300
H741        H  0.42647476  0.54921417  0.01806785     0.16600
O742        O  0.37225101  0.55676764  0.02113741    -0.60400
H743        H  0.36906625  0.55629239  0.05078933     0.43600
H744        H  0.37257909  0.93284340  0.95743441     0.43600
C745        C  0.09016962  0.99733660  0.00186706    -0.05500
C746        C  0.09052934  0.96647297  0.01009922    -0.32900
C747        C  0.12171633  0.96570557  0.01026507     0.36300
C748        C  0.15347007  0.99605509  0.00122662    -0.05800
C749        C  0.15313129  0.52686191  0.99289053    -0.32800
C750        C  0.12195068  0.52768616  0.99308764     0.36200
H751        H  0.06654416  0.94275815  0.01700378     0.16600
O752        O  0.12070151  0.93510657  0.01959420    -0.60300
H753        H  0.17709861  0.55053479  0.98582048     0.16600
O754        O  0.12296877  0.55840742  0.98448627    -0.60400
H755        H  0.12032395  0.55837664  0.95477296     0.43600
H756        H  0.12282923  0.93531458  0.04939560     0.43600
C757        C  0.99677750  0.99374688  0.87879889    -0.05500
C758        C  0.02573366  0.51978474  0.85849320    -0.32900
C759        C  0.02730532  0.52021314  0.81636473     0.36300
C760        C  0.99895070  0.99498985  0.79376238    -0.05800
C761        C  0.47012059  0.96864641  0.81426110    -0.32800
C762        C  0.46913509  0.96756355  0.85640123     0.36200
H763        H  0.04749846  0.53985017  0.87536300     0.16600
O764        O  0.05614708  0.54625314  0.79769752    -0.60300
H765        H  0.44819979  0.94863798  0.79755131     0.16600
O766        O  0.44030758  0.94168571  0.87528484    -0.60400
H767        H  0.44419872  0.92152036  0.87614895     0.43600
H768        H  0.07339819  0.53816358  0.79732011     0.43600
C769        C  0.24889736  0.75345803  0.45361001    -0.05500
C770        C  0.27480633  0.75001690  0.47415803    -0.32900
C771        C  0.27556950  0.74937954  0.51631124     0.36300
C772        C  0.24956242  0.75120220  0.53884570    -0.05800
C773        C  0.22335900  0.75420476  0.51841691    -0.32800
C774        C  0.22317959  0.75588126  0.47618811     0.36200
H775        H  0.29483531  0.74807724  0.45749883     0.16600
O776        O  0.30107327  0.74555259  0.53513021    -0.60300
H777        H  0.20322947  0.75581512  0.53526621     0.16600
O778        O  0.19702080  0.75856894  0.45734492    -0.60400
H779        H  0.20466034  0.78372765  0.45787117     0.43600
H780        H  0.32183361  0.76919986  0.53577931     0.43600
C781        C  0.25064593  0.75064551  0.20477004    -0.05500
C782        C  0.23354171  0.76452932  0.18213998    -0.32900
C783        C  0.23392004  0.76394615  0.13994982     0.36300
C784        C  0.25130631  0.74913621  0.11973888    -0.05800
C785        C  0.26784890  0.73473466  0.14188073    -0.32800
C786        C  0.26796781  0.73567147  0.18404146     0.36200
H787        H  0.21992178  0.77600890  0.19709640     0.16600
O788        O  0.21722325  0.77791213  0.11869822    -0.60300
H789        H  0.28148682  0.72349455  0.12640589     0.16600
O790        O  0.28608428  0.72284744  0.20447970    -0.60400
H791        H  0.26986400  0.69743877  0.20637922     0.43600
H792        H  0.19470120  0.75775293  0.11008551     0.43600
C793        C  0.24820212  0.00208599  0.45796883    -0.05500
C794        C  0.27339442  0.99742961  0.47844646    -0.32900
C795        C  0.27502198  0.99820521  0.52058135     0.36300
C796        C  0.25056042  0.00267936  0.54306735    -0.05800
C797        C  0.22506332  0.50711293  0.52278153    -0.32800
C798        C  0.22410980  0.50748737  0.48060314     0.36200
H799        H  0.29217875  0.99344697  0.46177122     0.16600
O800        O  0.29961554  0.99297779  0.53947828    -0.60300
H801        H  0.20620642  0.51081367  0.53970439     0.16600
O802        O  0.19904111  0.51210794  0.46194183    -0.60400
H803        H  0.20854732  0.53763101  0.46164326     0.43600
H804        H  0.32129239  0.01594226  0.53915812     0.43600
C805        C  0.24769160  0.99942921  0.20965671    -0.05500
C806        C  0.24419389  0.02480236  0.18817045    -0.32900
C807        C  0.24385623  0.02473156  0.14596115     0.36300
C808        C  0.24688218  0.99890048  0.12450283    -0.05800
C809        C  0.25220203  0.47465055  0.14577541    -0.32800
C810        C  0.25286312  0.47489645  0.18792017     0.36200
H811        H  0.24184149  0.04488693  0.20410901     0.16600
O812        O  0.23999858  0.04969117  0.12606229    -0.60300
H813        H  0.25636686  0.45573479  0.12968638     0.16600
O814        O  0.25835265  0.45083857  0.20749291    -0.60400
H815        H  0.23480713  0.43034442  0.21124954     0.43600
H816        H  0.21460754  0.03898700  0.12093751     0.43600
C817        C  0.99528847  0.74853970  0.45755869    -0.05500
C818        C  0.02608633  0.75675592  0.47808510    -0.32900
C819        C  0.02702201  0.75622498  0.52010624     0.36300
C820        C  0.99659655  0.74715036  0.54272620    -0.05800
C821        C  0.46546739  0.73842490  0.52198248    -0.32800
C822        C  0.46473740  0.73932531  0.47967208     0.36200
H823        H  0.04975417  0.76386315  0.46138066     0.16600
O824        O  0.05799594  0.76463266  0.53858950    -0.60300
H825        H  0.44168138  0.73102966  0.53852994     0.16600
O826        O  0.43379252  0.72948050  0.46023483    -0.60400
H827        H  0.43171771  0.75071866  0.45935243     0.43600
H828        H  0.05789860  0.74231616  0.54119661     0.43600
C829        C  0.34144732  0.59266619  0.33517660    -0.05500
C830        C  0.34245294  0.62365170  0.34672116    -0.32900
C831        C  0.37387155  0.65531760  0.34707801     0.36300
C832        C  0.40511605  0.65664087  0.33502207    -0.05800
C833        C  0.40427506  0.62555931  0.32453151    -0.32800
C834        C  0.37290676  0.59386438  0.32438739     0.36200
H835        H  0.31881239  0.62337030  0.35588648     0.16600
O836        O  0.37366173  0.68470178  0.35964469    -0.60300
H837        H  0.42795737  0.62582946  0.31558822     0.16600
O838        O  0.37338493  0.56434586  0.31307398    -0.60400
H839        H  0.37029890  0.56294143  0.28336389     0.43600
H840        H  0.37916850  0.68671272  0.38887833     0.43600
C841        C  0.15399379  0.90780819  0.33500713    -0.05500
C842        C  0.15414002  0.87689397  0.34387668    -0.32900
C843        C  0.12313358  0.84485610  0.34506231     0.36300
C844        C  0.09097835  0.84295356  0.33644054    -0.05800
C845        C  0.09075218  0.87392109  0.32820496    -0.32800
C846        C  0.12173327  0.90603114  0.32745387     0.36200
H847        H  0.17841805  0.87747212  0.35041155     0.16600
O848        O  0.12471615  0.81566874  0.35494698    -0.60300
H849        H  0.06644582  0.87332409  0.32180304     0.16600
O850        O  0.11999375  0.93542247  0.31927932    -0.60400
H851        H  0.12069604  0.93724203  0.28944776     0.43600
H852        H  0.12271952  0.81411368  0.38476378     0.43600
C853        C  0.00266555  0.75078628  0.20920588    -0.05500
C854        C  0.50137226  0.77775412  0.18852273    -0.32900
C855        C  0.50274998  0.77944357  0.14635564     0.36300
C856        C  0.00480186  0.75351073  0.12387925    -0.05800
C857        C  0.00623286  0.72660197  0.14445159    -0.32800
C858        C  0.00580626  0.72541736  0.18670987     0.36200
H859        H  0.49947970  0.79781384  0.20512778     0.16600
O860        O  0.50152072  0.80628491  0.12746711    -0.60300
H861        H  0.00807886  0.70656319  0.12772012     0.16600
O862        O  0.00725198  0.69867127  0.20555258    -0.60400
H863        H  0.03242389  0.70615185  0.20707992     0.43600
H864        H  0.47639190  0.79777490  0.12280108     0.43600
C865        C  0.99411598  0.99660417  0.54537741    -0.05500
C866        C  0.02025483  0.99414946  0.52430472    -0.32900
C867        C  0.02163202  0.99543428  0.48218840     0.36300
C868        C  0.99708459  0.00023399  0.46005424    -0.05800
C869        C  0.47092683  0.50288969  0.48122025    -0.32800
C870        C  0.46903271  0.50062653  0.52349754     0.36200
H871        H  0.03971747  0.99095850  0.54059359     0.16600
O872        O  0.04793772  0.99317996  0.46312298    -0.60300
H873        H  0.45165016  0.50638329  0.46495464     0.16600
O874        O  0.44358323  0.50399719  0.54312790    -0.60400
H875        H  0.42255439  0.48055079  0.54208877     0.43600
H876        H  0.03981117  0.96793946  0.46151685     0.43600
C877        C  0.40652639  0.90940422  0.33169707    -0.05500
C878        C  0.40533329  0.87851876  0.34370975    -0.32900
C879        C  0.37402458  0.84678271  0.34287061     0.36300
C880        C  0.34293579  0.84540627  0.32993573    -0.05800
C881        C  0.34423660  0.87622177  0.31730919    -0.32800
C882        C  0.37560071  0.90794824  0.31796760     0.36200
H883        H  0.42868932  0.87895318  0.35441895     0.16600
O884        O  0.37397528  0.81754229  0.35631365    -0.60300
H885        H  0.32088699  0.87575926  0.30652317     0.16600
O886        O  0.37587753  0.93710695  0.30375946    -0.60400
H887        H  0.36768805  0.94564856  0.32659164     0.43600
H888        H  0.38113593  0.80878836  0.33273223     0.43600
C889        C  0.15628476  0.65968862  0.32956063    -0.05500
C890        C  0.12449542  0.65932759  0.32525807    -0.32900
C891        C  0.09260599  0.62807074  0.32624895     0.36300
C892        C  0.09185886  0.59616353  0.33230281    -0.05800
C893        C  0.12366697  0.59650690  0.33581499    -0.32800
C894        C  0.15552231  0.62768768  0.33458002     0.36200
H895        H  0.12422178  0.68339155  0.32094843     0.16600
O896        O  0.06241330  0.62921238  0.32129583    -0.60300
H897        H  0.12400108  0.57245939  0.33995319     0.16600
O898        O  0.18570674  0.62635310  0.33831243    -0.60400
H899        H  0.19009663  0.62724390  0.36775086     0.43600
H900        H  0.05834954  0.62768098  0.29174490     0.43600
C901        C  0.49782194  0.99912955  0.12628723    -0.05500
C902        C  0.50098670  0.97369069  0.14784616    -0.32900
C903        C  0.50176086  0.97416885  0.19000675     0.36300
C904        C  0.49887132  0.00019816  0.21134683    -0.05800
C905        C  0.99506639  0.52522017  0.18963645    -0.32800
C906        C  0.99483933  0.52500669  0.14746134     0.36200
H907        H  0.50314106  0.95346484  0.13195248     0.16600
O908        O  0.50381273  0.94819309  0.20997151    -0.60300
H909        H  0.99246032  0.54523528  0.20538349     0.16600
O910        O  0.98994273  0.54921043  0.12729329    -0.60400
H911        H  0.01311655  0.57065012  0.12713535     0.43600
H912        H  0.52890359  0.95524777  0.20978549     0.43600
O913        O  0.93981260  0.47140455  0.33368517    -0.73000
O914        O  0.52948432  0.06202748  0.33567504    -0.73900
O915        O  0.98553963  0.01664694  0.27455167    -0.62600
O916        O  0.98338022  0.01585083  0.39604156    -0.71000
O917        O  0.51384015  0.48860165  0.39598190    -0.70500
O918        O  0.51379896  0.48711101  0.27550322    -0.61800
O919        O  0.55901409  0.03383785  0.33499407    -0.74300
O920        O  0.96881259  0.44265229  0.33562053    -0.73100
Cu921      Cu  0.98358766  0.01752375  0.33506423     1.04600
Cu922      Cu  0.51494992  0.48714775  0.33567591     1.04300
C923        C  0.93996317  0.44270821  0.33376196     0.93200
C924        C  0.55854595  0.06245348  0.33454627     0.92400
C925        C  0.99945216  0.50136584  0.25587841     0.84500
C926        C  0.49821246  0.00175539  0.41528883     0.90800
O927        O  0.96736314  0.18991514  0.33416984    -0.73000
O928        O  0.55784946  0.28061586  0.33512259    -0.73900
O929        O  0.51159813  0.23576849  0.39462714    -0.62600
O930        O  0.51385642  0.23464954  0.27388411    -0.71000
O931        O  0.98598464  0.26446592  0.27222873    -0.70500
O932        O  0.98091444  0.26287429  0.39350723    -0.61800
O933        O  0.52860910  0.30912891  0.33485302    -0.74300
O934        O  0.93841880  0.21871576  0.33144836    -0.73100
Cu935      Cu  0.51365450  0.23423781  0.33446221     1.04600
Cu936      Cu  0.98248315  0.26479122  0.33284475     1.04300
C937        C  0.93851235  0.19001360  0.33337666     0.93200
C938        C  0.55758736  0.30930530  0.33550867     0.92400
C939        C  0.49563276  0.24900362  0.41309725     0.84500
C940        C  0.50061570  0.24980901  0.25384274     0.90800
O941        O  0.77905887  0.06020078  0.33455410    -0.73000
O942        O  0.68765924  0.47027053  0.33274364    -0.73900
O943        O  0.73257679  0.01515841  0.39390065    -0.62600
O944        O  0.73422615  0.01551006  0.27302770    -0.71000
O945        O  0.76144199  0.48510341  0.27391716    -0.70500
O946        O  0.76189968  0.48683298  0.39450702    -0.61800
O947        O  0.71615520  0.44105867  0.33482006    -0.74300
O948        O  0.80719907  0.03058591  0.33376729    -0.73100
Cu949      Cu  0.73239109  0.01629478  0.33349551     1.04600
Cu950      Cu  0.76261036  0.48488196  0.33427464     1.04300
C951        C  0.80766009  0.05959816  0.33438504     0.93200
C952        C  0.68742070  0.44134312  0.33397571     0.92400
C953        C  0.74724575  0.50124467  0.41337663     0.84500
C954        C  0.74782252  0.50009580  0.25426024     0.90800
O955        O  0.73445950  0.26785171  0.38930710    -0.73000
O956        O  0.73538187  0.26657969  0.26765628    -0.73900
O957        O  0.68943761  0.22206301  0.32840503    -0.62600
O958        O  0.78049265  0.31262928  0.32835313    -0.71000
O959        O  0.80900770  0.28340520  0.33013734    -0.70500
O960        O  0.71866438  0.19359292  0.32992755    -0.61800
O961        O  0.76434604  0.23786771  0.26994088    -0.74300
O962        O  0.76359896  0.23919568  0.39016270    -0.73100
Cu963      Cu  0.73391460  0.26836207  0.32838241     1.04600
Cu964      Cu  0.76484671  0.23756812  0.33005735     1.04300
C965        C  0.74889342  0.25357212  0.40893168     0.93200
C966        C  0.75010407  0.25181715  0.24954640     0.92400
C967        C  0.68968736  0.19335631  0.32924087     0.84500
C968        C  0.80922304  0.31227540  0.32941168     0.90800
O969        O  0.52806031  0.46797832  0.00260854    -0.73000
O970        O  0.93694259  0.46642970  0.00403221    -0.73900
O971        O  0.98120092  0.46574257  0.94293005    -0.62600
O972        O  0.98395910  0.46877037  0.06365311    -0.71000
O973        O  0.51074470  0.02648321  0.06202203    -0.70500
O974        O  0.51059951  0.02361171  0.94162300    -0.61800
O975        O  0.96488573  0.02403513  0.00133069    -0.74300
O976        O  0.55615782  0.02569304  0.00226790    -0.73100
Cu977      Cu  0.98153536  0.46520450  0.00336647     1.04600
Cu978      Cu  0.51156379  0.02697989  0.00176096     1.04300
C979        C  0.55660178  0.49701383  0.00222565     0.93200
C980        C  0.93642772  0.49493753  0.00276847     0.92400
C981        C  0.49594887  0.49423329  0.92322080     0.84500
C982        C  0.99750284  0.49806961  0.08186720     0.90800
O983        O  0.99325794  0.22638674  0.93910543    -0.73000
O984        O  0.99177823  0.22535054  0.05971265    -0.73900
O985        O  0.94619041  0.22407641  0.99829016    -0.62600
O986        O  0.53809006  0.22764611  0.00005399    -0.71000
O987        O  0.56609625  0.28522296  0.00108057    -0.70500
O988        O  0.97382643  0.28162314  0.99816527    -0.61800
O989        O  0.51861756  0.28293594  0.06035165    -0.74300
O990        O  0.52135538  0.28393033  0.93917175    -0.73100
Cu991      Cu  0.99139033  0.22392154  0.99927216     1.04600
Cu992      Cu  0.52089001  0.28546545  0.99975706     1.04300
C993        C  0.50778645  0.25510379  0.91993002     0.93200
C994        C  0.50502723  0.25399671  0.07919482     0.92400
C995        C  0.94540247  0.25246529  0.99759691     0.84500
C996        C  0.56659664  0.25668475  0.00075592     0.90800
O997        O  0.77723915  0.46685008  0.00133812    -0.73000
O998        O  0.68709448  0.46727649  0.00140832    -0.73900
O999        O  0.73168190  0.46578897  0.94043860    -0.62600
O1000       O  0.73309959  0.46862367  0.06165448    -0.71000
O1001       O  0.76004567  0.02635699  0.06024823    -0.70500
O1002       O  0.76168633  0.02336375  0.93975205    -0.61800
O1003       O  0.71564061  0.02484764  0.99838186    -0.74300
O1004       O  0.80584479  0.02447086  0.00201215    -0.73100
Cu1005     Cu  0.73121420  0.46510343  0.00121632     1.04600
Cu1006     Cu  0.76179587  0.02674301  0.99996463     1.04300
C1007       C  0.80595546  0.49568330  0.00230517     0.93200
C1008       C  0.68696534  0.49598839  0.00020439     0.92400
C1009       C  0.74714305  0.49435211  0.92087435     0.84500
C1010       C  0.74644973  0.49786673  0.08001302     0.90800
O1011       O  0.73754604  0.22253352  0.93540064    -0.73000
O1012       O  0.73963262  0.22064894  0.05624544    -0.73900
O1013       O  0.69446431  0.22321211  0.99779559    -0.62600
O1014       O  0.78344728  0.22023250  0.99405021    -0.71000
O1015       O  0.81288023  0.27775212  0.99742139    -0.70500
O1016       O  0.72424359  0.28077980  0.99673497    -0.61800
O1017       O  0.76728072  0.27842467  0.05720097    -0.74300
O1018       O  0.76929841  0.28013479  0.93661814    -0.73100
Cu1019     Cu  0.73774651  0.21959613  0.99577898     1.04600
Cu1020     Cu  0.76955407  0.28124964  0.99701120     1.04300
C1021       C  0.75304182  0.25162506  0.91694134     0.93200
C1022       C  0.75292960  0.24935654  0.07564181     0.92400
C1023       C  0.69516674  0.25236205  0.99787881     0.84500
C1024       C  0.81246424  0.24876488  0.99561331     0.90800
O1025       O  0.96924821  0.48093676  0.73065713    -0.73000
O1026       O  0.96590659  0.48226011  0.60975327    -0.73900
O1027       O  0.96792378  0.43642781  0.66886023    -0.62600
O1028       O  0.96775562  0.02692428  0.67208868    -0.71000
O1029       O  0.52540347  0.05526835  0.66909167    -0.70500
O1030       O  0.52567748  0.46517558  0.66922340    -0.61800
O1031       O  0.52364900  0.00920718  0.60856355    -0.74300
O1032       O  0.52704809  0.01099782  0.72946938    -0.73100
Cu1033     Cu  0.96568057  0.48060757  0.67041652     1.04600
Cu1034     Cu  0.52741559  0.01115608  0.66898771     1.04300
C1035       C  0.49849801  0.49571676  0.74922528     0.93200
C1036       C  0.49446145  0.49602354  0.59001796     0.92400
C1037       C  0.49684943  0.43642684  0.66924258     0.84500
C1038       C  0.49668871  0.05554726  0.67068368     0.90800
O1039       O  0.97171640  0.27856516  0.67018964    -0.73000
O1040       O  0.97222613  0.18871226  0.66726090    -0.73900
O1041       O  0.97543606  0.23416934  0.72886171    -0.62600
O1042       O  0.96913901  0.23328421  0.60776436    -0.71000
O1043       O  0.52679276  0.26125017  0.60559753    -0.70500
O1044       O  0.53325368  0.26482537  0.72555387    -0.61800
O1045       O  0.52990438  0.21736045  0.66569550    -0.74300
O1046       O  0.52936123  0.30775800  0.66595006    -0.73100
Cu1047     Cu  0.97010408  0.23266289  0.66861282     1.04600
Cu1048     Cu  0.53181791  0.26375986  0.66546131     1.04300
C1049       C  0.50039392  0.30744516  0.66878028     0.93200
C1050       C  0.50102227  0.18860177  0.66674741     0.92400
C1051       C  0.50525726  0.24990797  0.74614518     0.84500
C1052       C  0.49742350  0.24718229  0.58743710     0.90800
O1053       O  0.78075921  0.47133599  0.66628418    -0.73000
O1054       O  0.77871245  0.06061931  0.66771137    -0.73900
O1055       O  0.77963738  0.01544833  0.72759057    -0.62600
O1056       O  0.77971674  0.01607322  0.60656521    -0.71000
O1057       O  0.72179131  0.48841154  0.60668914    -0.70500
O1058       O  0.72194531  0.48414958  0.72736834    -0.61800
O1059       O  0.72102605  0.03129514  0.66960530    -0.74300
O1060       O  0.72303163  0.44193198  0.66440530    -0.73100
Cu1061     Cu  0.78172569  0.01694805  0.66706513     1.04600
Cu1062     Cu  0.71994116  0.48545184  0.66703832     1.04300
C1063       C  0.75216240  0.44241042  0.66488888     0.93200
C1064       C  0.74965996  0.06027128  0.66907753     0.92400
C1065       C  0.75085305  0.49917682  0.74652611     0.84500
C1066       C  0.75064133  0.50235533  0.58753295     0.90800
O1067       O  0.77987657  0.31121316  0.66152288    -0.73000
O1068       O  0.77980654  0.22081150  0.66430598    -0.73900
O1069       O  0.77901210  0.26456214  0.60230688    -0.62600
O1070       O  0.78069442  0.26770225  0.72316312    -0.71000
O1071       O  0.72293305  0.23797884  0.72392245    -0.70500
O1072       O  0.72120490  0.23688778  0.60288481    -0.61800
O1073       O  0.72209830  0.19194344  0.66404536    -0.74300
O1074       O  0.72217396  0.28237897  0.66339337    -0.73100
Cu1075     Cu  0.78184529  0.26702960  0.66272965     1.04600
Cu1076     Cu  0.72009129  0.23625971  0.66353327     1.04300
C1077       C  0.75096493  0.31113979  0.66252232     0.93200
C1078       C  0.75102535  0.19200197  0.66490674     0.92400
C1079       C  0.74993593  0.25073323  0.58344794     0.84500
C1080       C  0.75204036  0.25330745  0.74272229     0.90800
C1081       C  0.75246210  0.40914600  0.66412455    -0.05500
C1082       C  0.72116896  0.37788706  0.67048591    -0.32900
C1083       C  0.72018197  0.34591704  0.66985706     0.36300
C1084       C  0.75096675  0.34458002  0.66289232    -0.05800
C1085       C  0.78231990  0.37585850  0.65658432    -0.32800
C1086       C  0.78330698  0.40788801  0.65729722     0.36200
H1087       H  0.69717208  0.37808992  0.67625870     0.16600
O1088       O  0.68903688  0.31629168  0.67715617    -0.60300
H1089       H  0.80631800  0.37562036  0.65095785     0.16600
O1090       O  0.81442875  0.43761578  0.65021786    -0.60400
H1091       H  0.82694399  0.44356053  0.67642834     0.43600
H1092       H  0.67699766  0.30954998  0.65066466     0.43600
C1093       C  0.74953869  0.09376169  0.66949760    -0.05500
C1094       C  0.78119783  0.12511560  0.66517422    -0.32900
C1095       C  0.78219015  0.15712594  0.66392408     0.36300
C1096       C  0.75105083  0.15849522  0.66683701    -0.05800
C1097       C  0.71942902  0.12719733  0.67194293    -0.32800
C1098       C  0.71849817  0.09517741  0.67364631     0.36200
H1099       H  0.80552093  0.12497745  0.66237803     0.16600
O1100       O  0.81390990  0.18685904  0.66007499    -0.60300
H1101       H  0.69515596  0.12742054  0.67485941     0.16600
O1102       O  0.68698864  0.06551311  0.67912674    -0.60400
H1103       H  0.68370118  0.06312862  0.70877706     0.43600
H1104       H  0.81867064  0.18948244  0.63068718     0.43600
C1105       C  0.49974222  0.34053992  0.67015526    -0.05500
C1106       C  0.96807524  0.34005917  0.66378843    -0.32900
C1107       C  0.96661681  0.37084150  0.66360400     0.36300
C1108       C  0.49722019  0.40313222  0.66995130    -0.05800
C1109       C  0.52874213  0.40352011  0.67722662    -0.32800
C1110       C  0.53013434  0.37268945  0.67770441     0.36200
H1111       H  0.94426978  0.31571349  0.65829544     0.16600
O1112       O  0.93508435  0.36888673  0.65700573    -0.60300
H1113       H  0.55253166  0.42784183  0.68287464     0.16600
O1114       O  0.56138163  0.37442898  0.68576255    -0.60400
H1115       H  0.56158007  0.37136692  0.71537346     0.43600
H1116       H  0.93336196  0.37033659  0.62732077     0.43600
C1117       C  0.49732868  0.08936855  0.67040498    -0.05500
C1118       C  0.52953949  0.12045673  0.66834312    -0.32900
C1119       C  0.53132020  0.15284293  0.66722118     0.36300
C1120       C  0.50045974  0.15481376  0.66786927    -0.05800
C1121       C  0.96827303  0.12374881  0.67026158    -0.32800
C1122       C  0.96648426  0.09136711  0.67143140     0.36200
H1123       H  0.55369296  0.11982683  0.66748155     0.16600
O1124       O  0.56343873  0.18226861  0.66488937    -0.60300
H1125       H  0.94411381  0.12436639  0.67116891     0.16600
O1126       O  0.93436028  0.06195600  0.67398735    -0.60400
H1127       H  0.92597529  0.05612306  0.64574781     0.43600
H1128       H  0.57170895  0.18797205  0.69318196     0.43600
C1129       C  0.75227034  0.25241270  0.87251378    -0.05500
C1130       C  0.78140037  0.27774195  0.85157143    -0.32900
C1131       C  0.78169438  0.27859383  0.80938632     0.36300
C1132       C  0.75236684  0.25390854  0.78737457    -0.05800
C1133       C  0.72285709  0.22921244  0.80850969    -0.32800
C1134       C  0.72266365  0.22830920  0.85066305     0.36200
H1135       H  0.80427711  0.29666469  0.86796290     0.16600
O1136       O  0.81080565  0.30367871  0.79011776    -0.60300
H1137       H  0.69990333  0.21018681  0.79233492     0.16600
O1138       O  0.69324954  0.20397084  0.87017827    -0.60400
H1139       H  0.67914761  0.21539111  0.87477491     0.43600
H1140       H  0.80701906  0.32381917  0.78743096     0.43600
C1141       C  0.74845927  0.49439526  0.87612777    -0.05500
C1142       C  0.77257258  0.02485311  0.85614457    -0.32900
C1143       C  0.77393543  0.02652564  0.81404774     0.36300
C1144       C  0.75075731  0.49757327  0.79094702    -0.05800
C1145       C  0.72699856  0.46678896  0.81063747    -0.32800
C1146       C  0.72590502  0.46490103  0.85285283     0.36200
H1147       H  0.79061687  0.04769692  0.87318780     0.16600
O1148       O  0.79766670  0.05695590  0.79581975    -0.60300
H1149       H  0.70931395  0.44402963  0.79320338     0.16600
O1150       O  0.70257037  0.43418828  0.87085857    -0.60400
H1151       H  0.68064219  0.43500947  0.87311574     0.43600
H1152       H  0.78496994  0.06977558  0.79094481     0.43600
C1153       C  0.91139489  0.25151627  0.99623765    -0.05500
C1154       C  0.88012966  0.21944635  0.99813907    -0.32900
C1155       C  0.84770760  0.21788807  0.99783829     0.36300
C1156       C  0.84602292  0.24879415  0.99539975    -0.05800
C1157       C  0.87727821  0.28072937  0.99304271    -0.32800
C1158       C  0.90957057  0.28229463  0.99316478     0.36200
H1159       H  0.88069033  0.19536194  0.00022307     0.16600
O1160       O  0.81798613  0.18599632  0.99991575    -0.60300
H1161       H  0.87687455  0.30489155  0.99093060     0.16600
O1162       O  0.93913486  0.31426142  0.99057849    -0.60400
H1163       H  0.94385119  0.31846306  0.96128399     0.43600
H1164       H  0.81364705  0.18098645  0.02914079     0.43600
C1165       C  0.59999524  0.25656794  0.00091159    -0.05500
C1166       C  0.59903511  0.22443909  0.00087354    -0.32900
C1167       C  0.62957915  0.22263477  0.00055185     0.36300
C1168       C  0.66225510  0.25339772  0.99939430    -0.05800
C1169       C  0.66335441  0.28565014  0.99994547    -0.32800
C1170       C  0.63265878  0.28744612  0.00078385     0.36200
H1171       H  0.57438709  0.20026957  0.00123178     0.16600
O1172       O  0.62693611  0.19049077  0.00099615    -0.60300
H1173       H  0.68810619  0.30971668  0.99969692     0.16600
O1174       O  0.63505307  0.31948200  0.00208491    -0.60400
H1175       H  0.63870473  0.32760998  0.97372986     0.43600
H1176       H  0.62493002  0.18404534  0.02990240     0.43600
C1177       C  0.50854287  0.25448096  0.87524205    -0.05500
C1178       C  0.48881977  0.22253298  0.85504077    -0.32900
C1179       C  0.48808842  0.22074642  0.81300488     0.36300
C1180       C  0.50730650  0.25110587  0.79030268    -0.05800
C1181       C  0.02793288  0.28295276  0.81004435    -0.32800
C1182       C  0.02851324  0.28491160  0.85222385     0.36200
H1183       H  0.47352208  0.19872533  0.87180461     0.16600
O1184       O  0.46861236  0.18913315  0.79435033    -0.60300
H1185       H  0.04293611  0.30649659  0.79268416     0.16600
O1186       O  0.04820409  0.31670376  0.87039651    -0.60400
H1187       H  0.07153363  0.31912452  0.87436849     0.43600
H1188       H  0.48498678  0.18030387  0.78974340     0.43600
C1189       C  0.83938599  0.49561362  0.00335317    -0.05500
C1190       C  0.83965529  0.46459800  0.99551073    -0.32900
C1191       C  0.87088545  0.46386695  0.99523913     0.36300
C1192       C  0.90276357  0.49452770  0.00309640    -0.05800
C1193       C  0.90237900  0.02546163  0.01124553    -0.32800
C1194       C  0.87115667  0.02614076  0.01175772     0.36200
H1195       H  0.81559383  0.44077477  0.98899761     0.16600
O1196       O  0.86981067  0.43303866  0.98692084    -0.60300
H1197       H  0.92643458  0.04929489  0.01774230     0.16600
O1198       O  0.87221599  0.05684933  0.02075240    -0.60400
H1199       H  0.86911574  0.05649940  0.05041092     0.43600
H1200       H  0.87267904  0.43289413  0.95726392     0.43600
C1201       C  0.59020782  0.49729610  0.00190931    -0.05500
C1202       C  0.59063827  0.46655930  0.01072057    -0.32900
C1203       C  0.62183195  0.46580425  0.01086478     0.36300
C1204       C  0.65349932  0.49601474  0.00119008    -0.05800
C1205       C  0.65312841  0.02695718  0.99300050    -0.32800
C1206       C  0.62195792  0.02780101  0.99319742     0.36200
H1207       H  0.56671026  0.44295229  0.01811034     0.16600
O1208       O  0.62092161  0.43537301  0.02084565    -0.60300
H1209       H  0.67710623  0.05062964  0.98596130     0.16600
O1210       O  0.62299782  0.05854005  0.98464274    -0.60400
H1211       H  0.62041163  0.05856313  0.95492472     0.43600
H1212       H  0.62344596  0.43612921  0.05062239     0.43600
C1213       C  0.49673776  0.49363726  0.87882982    -0.05500
C1214       C  0.52578205  0.02000632  0.85848548    -0.32900
C1215       C  0.52735410  0.02039949  0.81635350     0.36300
C1216       C  0.49892303  0.49489741  0.79379143    -0.05800
C1217       C  0.96999351  0.46856411  0.81423500    -0.32800
C1218       C  0.96899348  0.46746134  0.85637766     0.36200
H1219       H  0.54751770  0.04012186  0.87534173     0.16600
O1220       O  0.55616944  0.04645353  0.79766192    -0.60300
H1221       H  0.94803922  0.44861394  0.79751149     0.16600
O1222       O  0.94010011  0.44166346  0.87525085    -0.60400
H1223       H  0.94385369  0.42141129  0.87607225     0.43600
H1224       H  0.57343336  0.03838048  0.79725016     0.43600
C1225       C  0.74892390  0.25348422  0.45362477    -0.05500
C1226       C  0.77485427  0.25007628  0.47416955    -0.32900
C1227       C  0.77561955  0.24943741  0.51632349     0.36300
C1228       C  0.74959836  0.25123263  0.53885994    -0.05800
C1229       C  0.72336803  0.25419006  0.51843284    -0.32800
C1230       C  0.72318083  0.25586003  0.47620472     0.36200
H1231       H  0.79489643  0.24816245  0.45750708     0.16600
O1232       O  0.80113727  0.24563222  0.53514069    -0.60300
H1233       H  0.70322053  0.25576760  0.53528281     0.16600
O1234       O  0.69698763  0.25848876  0.45736298    -0.60400
H1235       H  0.70457213  0.28363444  0.45790847     0.43600
H1236       H  0.82188955  0.26928494  0.53578094     0.43600
C1237       C  0.75061424  0.25064746  0.20478140    -0.05500
C1238       C  0.73348439  0.26449028  0.18212647    -0.32900
C1239       C  0.73387966  0.26389615  0.13993537     0.36300
C1240       C  0.75130454  0.24911190  0.11975304    -0.05800
C1241       C  0.76788108  0.23476176  0.14191935    -0.32800
C1242       C  0.76798940  0.23571650  0.18407735     0.36200
H1243       H  0.71983289  0.27594518  0.19706388     0.16600
O1244       O  0.71716812  0.27783190  0.11865504    -0.60300
H1245       H  0.78155574  0.22355073  0.12646555     0.16600
O1246       O  0.78615413  0.22295822  0.20453763    -0.60400
H1247       H  0.76996143  0.19754722  0.20648507     0.43600
H1248       H  0.69468637  0.25765400  0.10997285     0.43600
C1249       C  0.74792391  0.50201153  0.45799011    -0.05500
C1250       C  0.77300427  0.49717341  0.47846064    -0.32900
C1251       C  0.77464059  0.49793998  0.52058974     0.36300
C1252       C  0.75030430  0.50260044  0.54308711    -0.05800
C1253       C  0.72511969  0.00707229  0.52275181    -0.32800
C1254       C  0.72417354  0.00744164  0.48057397     0.36200
H1255       H  0.79170330  0.49305964  0.46178431     0.16600
O1256       O  0.79911876  0.49252676  0.53947398    -0.60300
H1257       H  0.70623396  0.01073567  0.53966328     0.16600
O1258       O  0.69906740  0.01199577  0.46190064    -0.60400
H1259       H  0.70852811  0.03751146  0.46158676     0.43600
H1260       H  0.82087519  0.51542439  0.53916468     0.43600
C1261       C  0.74770129  0.49947469  0.20956944    -0.05500
C1262       C  0.74159411  0.52320767  0.18803046    -0.32900
C1263       C  0.74112336  0.52301353  0.14581890     0.36300
C1264       C  0.74665978  0.49873481  0.12441332    -0.05800
C1265       C  0.75092894  0.97389773  0.14582430    -0.32800
C1266       C  0.75151151  0.97406712  0.18796853     0.36200
H1267       H  0.73723763  0.54207878  0.20390864     0.16600
O1268       O  0.73464044  0.54626049  0.12584343    -0.60300
H1269       H  0.75401158  0.95429685  0.12975331     0.16600
O1270       O  0.75547695  0.94906291  0.20756759    -0.60400
H1271       H  0.73145837  0.92936640  0.21139047     0.43600
H1272       H  0.70918823  0.53355636  0.12047182     0.43600
C1273       C  0.49521530  0.24870722  0.45748295    -0.05500
C1274       C  0.52602664  0.25692026  0.47797511    -0.32900
C1275       C  0.52699529  0.25638559  0.51999413     0.36300
C1276       C  0.49658446  0.24729050  0.54265323    -0.05800
C1277       C  0.96546426  0.23847125  0.52195028    -0.32800
C1278       C  0.96471425  0.23938001  0.47963878     0.36200
H1279       H  0.54968090  0.26402339  0.46124357     0.16600
O1280       O  0.55798887  0.26480897  0.53843634    -0.60300
H1281       H  0.94167787  0.23103982  0.53851400     0.16600
O1282       O  0.93375593  0.22951483  0.46022326    -0.60400
H1283       H  0.93165472  0.25073884  0.45937061     0.43600
H1284       H  0.55791434  0.24250164  0.54101015     0.43600
C1285       C  0.84144374  0.09268628  0.33499350    -0.05500
C1286       C  0.84240759  0.12365463  0.34653171    -0.32900
C1287       C  0.87379996  0.15534259  0.34687552     0.36300
C1288       C  0.90506291  0.15670128  0.33483650    -0.05800
C1289       C  0.90425665  0.12564412  0.32429994    -0.32800
C1290       C  0.87291108  0.09393002  0.32414901     0.36200
H1291       H  0.81875478  0.12334263  0.35570957     0.16600
O1292       O  0.87354664  0.18471046  0.35941901    -0.60300
H1293       H  0.92795112  0.12594736  0.31533762     0.16600
O1294       O  0.87341929  0.06443786  0.31278416    -0.60400
H1295       H  0.87034203  0.06306503  0.28307306     0.43600
H1296       H  0.87905003  0.18673889  0.38865425     0.43600
C1297       C  0.65388939  0.40785927  0.33480675    -0.05500
C1298       C  0.65403422  0.37695842  0.34376611    -0.32900
C1299       C  0.62303218  0.34491952  0.34494543     0.36300
C1300       C  0.59088443  0.34300998  0.33625646    -0.05800
C1301       C  0.59066474  0.37395865  0.32788300    -0.32800
C1302       C  0.62164349  0.40606577  0.32710920     0.36200
H1303       H  0.67830613  0.37754975  0.35038337     0.16600
O1304       O  0.62461125  0.31574075  0.35488959    -0.60300
H1305       H  0.56636559  0.37334772  0.32138859     0.16600
O1306       O  0.61991880  0.43543773  0.31875980    -0.60400
H1307       H  0.62060663  0.43715227  0.28891885     0.43600
H1308       H  0.62259055  0.31420429  0.38470507     0.43600
C1309       C  0.50253238  0.25083165  0.20914048    -0.05500
C1310       C  0.00129524  0.27777338  0.18846160    -0.32900
C1311       C  0.00268470  0.27946116  0.14629644     0.36300
C1312       C  0.50468770  0.25352655  0.12382486    -0.05800
C1313       C  0.50611712  0.22662625  0.14441578    -0.32800
C1314       C  0.50567134  0.22545082  0.18667071     0.36200
H1315       H  0.99937790  0.29782271  0.20505849     0.16600
O1316       O  0.00142752  0.30628276  0.12739468    -0.60300
H1317       H  0.50797826  0.20658807  0.12770198     0.16600
O1318       O  0.50709288  0.19870046  0.20553634    -0.60400
H1319       H  0.53225857  0.20615203  0.20704441     0.43600
H1320       H  0.97629266  0.29776247  0.12276062     0.43600
C1321       C  0.49414678  0.49663224  0.54539952    -0.05500
C1322       C  0.52027934  0.49417311  0.52431956    -0.32900
C1323       C  0.52165220  0.49546273  0.48220360     0.36300
C1324       C  0.49710490  0.50026926  0.46007722    -0.05800
C1325       C  0.97090652  0.00286053  0.48119044    -0.32800
C1326       C  0.96900801  0.00060228  0.52346798     0.36200
H1327       H  0.53974120  0.49097669  0.54060261     0.16600
O1328       O  0.54795442  0.49320696  0.46313128    -0.60300
H1329       H  0.95163320  0.00635554  0.46491918     0.16600
O1330       O  0.94356140  0.00398276  0.54309115    -0.60400
H1331       H  0.92252895  0.98053895  0.54205295     0.43600
H1332       H  0.53981323  0.46796471  0.46149257     0.43600
C1333       C  0.90653564  0.40940666  0.33167270    -0.05500
C1334       C  0.90535105  0.37849449  0.34354626    -0.32900
C1335       C  0.87403790  0.34676296  0.34268500     0.36300
C1336       C  0.84293094  0.34541720  0.32988003    -0.05800
C1337       C  0.84422539  0.37625822  0.31737634    -0.32800
C1338       C  0.87559550  0.40797900  0.31804707     0.36200
H1339       H  0.92871857  0.37890151  0.35415909     0.16600
O1340       O  0.87400794  0.31749224  0.35597272    -0.60300
H1341       H  0.82086489  0.37582246  0.30668258     0.16600
O1342       O  0.87585945  0.43716386  0.30395776    -0.60400
H1343       H  0.86773202  0.44568784  0.32686736     0.43600
H1344       H  0.88108549  0.30876345  0.33229568     0.43600
C1345       C  0.65628218  0.15968701  0.32968702    -0.05500
C1346       C  0.62449176  0.15931044  0.32531186    -0.32900
C1347       C  0.59260753  0.12804921  0.32629897     0.36300
C1348       C  0.59186362  0.09615183  0.33242542    -0.05800
C1349       C  0.62367310  0.09651028  0.33604142    -0.32800
C1350       C  0.65552571  0.12769727  0.33480833     0.36200
H1351       H  0.62421386  0.18336496  0.32093146     0.16600
O1352       O  0.56241544  0.12917531  0.32125139    -0.60300
H1353       H  0.62400889  0.07247056  0.34025130     0.16600
O1354       O  0.68571295  0.12638001  0.33863721    -0.60400
H1355       H  0.69008052  0.12732615  0.36808528     0.43600
H1356       H  0.55838072  0.12760130  0.29169341     0.43600
C1357       C  0.99789249  0.49910448  0.12626632    -0.05500
C1358       C  0.00100803  0.47364603  0.14784502    -0.32900
C1359       C  0.00176611  0.47413101  0.19000481     0.36300
C1360       C  0.99889250  0.50017754  0.21132580    -0.05800
C1361       C  0.49498259  0.02521196  0.18967522    -0.32800
C1362       C  0.49471939  0.02499369  0.14750078     0.36200
H1363       H  0.00313686  0.45339884  0.13196746     0.16600
O1364       O  0.00379383  0.44814925  0.20998707    -0.60300
H1365       H  0.49234645  0.04520385  0.20543539     0.16600
O1366       O  0.48973300  0.04914872  0.12735215    -0.60400
H1367       H  0.51288536  0.07061390  0.12714416     0.43600
H1368       H  0.02888546  0.45520542  0.20984472     0.43600
O1369       O  0.93978930  0.97139836  0.33366053    -0.73000
O1370       O  0.52947392  0.56204346  0.33562089    -0.73900
O1371       O  0.98554771  0.51664670  0.27455048    -0.62600
O1372       O  0.98340316  0.51587251  0.39605125    -0.71000
O1373       O  0.51382651  0.98856298  0.39598609    -0.70500
O1374       O  0.51381158  0.98712671  0.27549784    -0.61800
O1375       O  0.55900411  0.53385403  0.33495742    -0.74300
O1376       O  0.96878918  0.94264473  0.33559684    -0.73100
Cu1377     Cu  0.98359717  0.51753399  0.33506894     1.04600
Cu1378     Cu  0.51495231  0.98713513  0.33567697     1.04300
C1379       C  0.93994094  0.94270194  0.33373604     0.93200
C1380       C  0.55853429  0.56246878  0.33448385     0.92400
C1381       C  0.99942916  0.00135748  0.25586906     0.84500
C1382       C  0.49823194  0.50180114  0.41528177     0.90800
O1383       O  0.96743785  0.68983528  0.33426310    -0.73000
O1384       O  0.55793600  0.78055704  0.33520195    -0.73900
O1385       O  0.51169786  0.73568232  0.39469366    -0.62600
O1386       O  0.51394450  0.73456932  0.27394268    -0.71000
O1387       O  0.98605531  0.76441686  0.27230524    -0.70500
O1388       O  0.98097766  0.76278322  0.39358909    -0.61800
O1389       O  0.52868136  0.80905510  0.33496432    -0.74300
O1390       O  0.93849872  0.71863917  0.33153036    -0.73100
Cu1391     Cu  0.51374543  0.73415596  0.33453234     1.04600
Cu1392     Cu  0.98254822  0.76472454  0.33292996     1.04300
C1393       C  0.93858579  0.68993537  0.33348970     0.93200
C1394       C  0.55766496  0.80924337  0.33563233     0.92400
C1395       C  0.49571373  0.74889640  0.41316374     0.84500
C1396       C  0.50071945  0.74974648  0.25390486     0.90800
O1397       O  0.77902985  0.56024624  0.33460415    -0.73000
O1398       O  0.68775049  0.97021001  0.33279579    -0.73900
O1399       O  0.73246236  0.51518561  0.39391375    -0.62600
O1400       O  0.73416875  0.51556102  0.27301060    -0.71000
O1401       O  0.76143539  0.98497390  0.27388692    -0.70500
O1402       O  0.76208915  0.98688080  0.39448652    -0.61800
O1403       O  0.71625067  0.94100386  0.33492184    -0.74300
O1404       O  0.80711966  0.53058304  0.33391526    -0.73100
Cu1405     Cu  0.73232004  0.51634656  0.33349448     1.04600
Cu1406     Cu  0.76270432  0.98484717  0.33424944     1.04300
C1407       C  0.80761730  0.55961046  0.33451210     0.93200
C1408       C  0.68751274  0.94128539  0.33409073     0.92400
C1409       C  0.74741228  0.00126884  0.41335802     0.84500
C1410       C  0.74783738  0.00000929  0.25427344     0.90800
O1411       O  0.73442937  0.76782576  0.38926963    -0.73000
O1412       O  0.73541431  0.76659055  0.26762660    -0.73900
O1413       O  0.68943461  0.72206478  0.32833182    -0.62600
O1414       O  0.78049159  0.81261376  0.32834870    -0.71000
O1415       O  0.80901024  0.78339223  0.33015009    -0.70500
O1416       O  0.71865390  0.69358722  0.32985562    -0.61800
O1417       O  0.76437865  0.73787816  0.26990974    -0.74300
O1418       O  0.76355901  0.73916037  0.39013639    -0.73100
Cu1419     Cu  0.73391506  0.76835444  0.32834620     1.04600
Cu1420     Cu  0.76484297  0.73755581  0.33002960     1.04300
C1421       C  0.74885203  0.75353836  0.40890031     0.93200
C1422       C  0.75014308  0.75183497  0.24951649     0.92400
C1423       C  0.68967944  0.69335606  0.32915273     0.84500
C1424       C  0.80922147  0.81226093  0.32942280     0.90800
O1425       O  0.52804896  0.96808563  0.00260105    -0.73000
O1426       O  0.93690946  0.96647650  0.00397931    -0.73900
O1427       O  0.98122243  0.96586310  0.94289945    -0.62600
O1428       O  0.98388804  0.96877462  0.06361504    -0.71000
O1429       O  0.51079259  0.52641569  0.06199657    -0.70500
O1430       O  0.51055199  0.52345662  0.94161029    -0.61800
O1431       O  0.96493202  0.52398815  0.00135433    -0.74300
O1432       O  0.55616078  0.52558630  0.00221763    -0.73100
Cu1433     Cu  0.98150841  0.96526784  0.00332592     1.04600
Cu1434     Cu  0.51156605  0.52686917  0.00173863     1.04300
C1435       C  0.55659318  0.99711720  0.00224717     0.93200
C1436       C  0.93638519  0.99497910  0.00272772     0.92400
C1437       C  0.49600617  0.99439386  0.92322080     0.84500
C1438       C  0.99740286  0.99805909  0.08185682     0.90800
O1439       O  0.99316710  0.72633180  0.93914206    -0.73000
O1440       O  0.99177402  0.72528952  0.05975895    -0.73900
O1441       O  0.94614120  0.72402159  0.99836598    -0.62600
O1442       O  0.53807110  0.72764154  0.00000274    -0.71000
O1443       O  0.56607452  0.78521798  0.00103456    -0.70500
O1444       O  0.97378228  0.78156931  0.99823877    -0.61800
O1445       O  0.51864766  0.78293834  0.06038350    -0.74300
O1446       O  0.52129103  0.78392745  0.93919207    -0.73100
Cu1447     Cu  0.99134118  0.72386133  0.99930756     1.04600
Cu1448     Cu  0.52087279  0.78546705  0.99977690     1.04300
C1449       C  0.50770379  0.75509925  0.91995253     0.93200
C1450       C  0.50508049  0.75400060  0.07923069     0.92400
C1451       C  0.94535809  0.75241281  0.99764482     0.84500
C1452       C  0.56657778  0.75668175  0.00066890     0.90800
O1453       O  0.77718296  0.96687025  0.00132070    -0.73000
O1454       O  0.68705314  0.96732185  0.00145980    -0.73900
O1455       O  0.73157182  0.96578809  0.94045558    -0.62600
O1456       O  0.73309474  0.96870206  0.06167098    -0.71000
O1457       O  0.75992447  0.52628708  0.06027035    -0.70500
O1458       O  0.76181442  0.52336127  0.93977304    -0.61800
O1459       O  0.71566336  0.52480228  0.99828864    -0.74300
O1460       O  0.80588301  0.52445014  0.00214958    -0.73100
Cu1461     Cu  0.73116189  0.96513961  0.00123569     1.04600
Cu1462     Cu  0.76181629  0.52670984  0.99998783     1.04300
C1463       C  0.80590550  0.99570027  0.00222221     0.93200
C1464       C  0.68693441  0.99603828  0.00027614     0.92400
C1465       C  0.74699961  0.99434479  0.92087541     0.84500
C1466       C  0.74654459  0.99795407  0.08002912     0.90800
O1467       O  0.73758556  0.72260581  0.93537168    -0.73000
O1468       O  0.73964520  0.72070632  0.05621078    -0.73900
O1469       O  0.69449614  0.72328390  0.99773678    -0.62600
O1470       O  0.78344774  0.72027240  0.99402242    -0.71000
O1471       O  0.81290509  0.77779268  0.99739978    -0.70500
O1472       O  0.72426910  0.78085112  0.99667014    -0.61800
O1473       O  0.76729523  0.77848181  0.05716927    -0.74300
O1474       O  0.76935516  0.78020672  0.93658359    -0.73100
Cu1475     Cu  0.73776736  0.71965881  0.99574422     1.04600
Cu1476     Cu  0.76958551  0.78131238  0.99697698     1.04300
C1477       C  0.75309569  0.75169557  0.91691069     0.93200
C1478       C  0.75294684  0.74941296  0.07560936     0.92400
C1479       C  0.69519185  0.75242945  0.99778494     0.84500
C1480       C  0.81247070  0.74879592  0.99557610     0.90800
O1481       O  0.96926804  0.98100459  0.73066192    -0.73000
O1482       O  0.96587085  0.98223837  0.60974962    -0.73900
O1483       O  0.96788477  0.93642989  0.66890651    -0.62600
O1484       O  0.96775249  0.52689877  0.67213752    -0.71000
O1485       O  0.52540245  0.55526352  0.66915674    -0.70500
O1486       O  0.52562742  0.96515145  0.66927466    -0.61800
O1487       O  0.52368634  0.50925965  0.60856622    -0.74300
O1488       O  0.52703184  0.51093959  0.72948632    -0.73100
Cu1489     Cu  0.96566615  0.98062554  0.67041829     1.04600
Cu1490     Cu  0.52743434  0.51116180  0.66899803     1.04300
C1491       C  0.49852378  0.99580675  0.74922561     0.93200
C1492       C  0.49442201  0.99596909  0.59002196     0.92400
C1493       C  0.49679214  0.93640842  0.66933465     0.84500
C1494       C  0.49668225  0.55553078  0.67075896     0.90800
O1495       O  0.97165266  0.77853731  0.67019576    -0.73000
O1496       O  0.97214605  0.68866325  0.66735500    -0.73900
O1497       O  0.97533740  0.73414899  0.72890599    -0.62600
O1498       O  0.96909364  0.73321831  0.60781214    -0.71000
O1499       O  0.52677214  0.76121353  0.60566863    -0.70500
O1500       O  0.53315625  0.76479224  0.72561162    -0.61800
O1501       O  0.52984429  0.71732770  0.66578193    -0.74300
O1502       O  0.52929648  0.80772830  0.66600030    -0.73100
Cu1503     Cu  0.97003111  0.73262365  0.66865897     1.04600
Cu1504     Cu  0.53175709  0.76372776  0.66552841     1.04300
C1505       C  0.50032634  0.80741263  0.66881534     0.93200
C1506       C  0.50096491  0.68856518  0.66682425     0.92400
C1507       C  0.50514934  0.74987750  0.74618255     0.84500
C1508       C  0.49741218  0.74712088  0.58748919     0.90800
O1509       O  0.78077855  0.97133701  0.66634240    -0.73000
O1510       O  0.77872986  0.56064026  0.66770236    -0.73900
O1511       O  0.77973195  0.51550139  0.72756047    -0.62600
O1512       O  0.77963647  0.51605481  0.60653767    -0.71000
O1513       O  0.72187128  0.98839678  0.60662783    -0.70500
O1514       O  0.72185229  0.98412569  0.72731545    -0.61800
O1515       O  0.72104651  0.53131481  0.66971843    -0.74300
O1516       O  0.72305237  0.94191910  0.66440943    -0.73100
Cu1517     Cu  0.78173040  0.51696198  0.66703066     1.04600
Cu1518     Cu  0.71993723  0.98543208  0.66697667     1.04300
C1519       C  0.75218819  0.94240718  0.66494972     0.93200
C1520       C  0.74967817  0.56029010  0.66914423     0.92400
C1521       C  0.75073744  0.99913534  0.74651998     0.84500
C1522       C  0.75074348  0.00236764  0.58751458     0.90800
O1523       O  0.77988392  0.81119793  0.66152416    -0.73000
O1524       O  0.77976573  0.72078775  0.66425518    -0.73900
O1525       O  0.77896927  0.76454516  0.60227163    -0.62600
O1526       O  0.78069751  0.76767251  0.72312238    -0.71000
O1527       O  0.72293601  0.73797482  0.72391182    -0.70500
O1528       O  0.72116242  0.73687569  0.60286857    -0.61800
O1529       O  0.72205753  0.69192168  0.66403439    -0.74300
O1530       O  0.72218082  0.78238207  0.66340481    -0.73100
Cu1531     Cu  0.78182511  0.76700594  0.66269338     1.04600
Cu1532     Cu  0.72007095  0.73625069  0.66352402     1.04300
C1533       C  0.75098002  0.81113648  0.66256117     0.93200
C1534       C  0.75098538  0.69198103  0.66489261     0.92400
C1535       C  0.74988894  0.75071847  0.58342173     0.84500
C1536       C  0.75205156  0.75329534  0.74269616     0.90800
C1537       C  0.75250135  0.90914948  0.66425370    -0.05500
C1538       C  0.72121809  0.87789665  0.67067861    -0.32900
C1539       C  0.72023274  0.84592782  0.67007127     0.36300
C1540       C  0.75100012  0.84458313  0.66300888    -0.05800
C1541       C  0.78235404  0.87585909  0.65669437    -0.32800
C1542       C  0.78334849  0.90789151  0.65743964     0.36200
H1543       H  0.69722957  0.87810479  0.67649314     0.16600
O1544       O  0.68911303  0.81631326  0.67750687    -0.60300
H1545       H  0.80634690  0.87561696  0.65104245     0.16600
O1546       O  0.81448113  0.93762235  0.65041545    -0.60400
H1547       H  0.82696669  0.94353986  0.67664509     0.43600
H1548       H  0.67696124  0.80955832  0.65108257     0.43600
C1549       C  0.74954739  0.59377351  0.66958883    -0.05500
C1550       C  0.78120119  0.62513384  0.66528869    -0.32900
C1551       C  0.78217762  0.65713513  0.66403332     0.36300
C1552       C  0.75102313  0.65848415  0.66687187    -0.05800
C1553       C  0.71940831  0.62718171  0.67198209    -0.32800
C1554       C  0.71849813  0.59517392  0.67373458     0.36200
H1555       H  0.80553326  0.62500891  0.66252795     0.16600
O1556       O  0.81389901  0.68688120  0.66027738    -0.60300
H1557       H  0.69512770  0.62739325  0.67487453     0.16600
O1558       O  0.68700147  0.56550684  0.67927022    -0.60400
H1559       H  0.68374834  0.56314885  0.70892651     0.43600
H1560       H  0.81873003  0.68953383  0.63090535     0.43600
C1561       C  0.49967116  0.84050836  0.67022788    -0.05500
C1562       C  0.96801036  0.84003803  0.66388141    -0.32900
C1563       C  0.96655232  0.87082208  0.66371533     0.36300
C1564       C  0.49714876  0.90310487  0.67007747    -0.05800
C1565       C  0.52867118  0.90348836  0.67733109    -0.32800
C1566       C  0.53006327  0.87265677  0.67778672     0.36200
H1567       H  0.94419639  0.81569066  0.65842911     0.16600
O1568       O  0.93500912  0.86886462  0.65719620    -0.60300
H1569       H  0.55246399  0.92780904  0.68297108     0.16600
O1570       O  0.56131228  0.87439539  0.68582928    -0.60400
H1571       H  0.56151921  0.87133430  0.71543958     0.43600
H1572       H  0.93322379  0.87027086  0.62751442     0.43600
C1573       C  0.49731062  0.58934772  0.67050131    -0.05500
C1574       C  0.52950767  0.62043687  0.66826713    -0.32900
C1575       C  0.53127416  0.65281652  0.66713188     0.36300
C1576       C  0.50041284  0.65478129  0.66795694    -0.05800
C1577       C  0.96823143  0.62371136  0.67065469    -0.32800
C1578       C  0.96646230  0.59133666  0.67181351     0.36200
H1579       H  0.55366065  0.61981215  0.66726083     0.16600
O1580       O  0.56337663  0.68224000  0.66458579    -0.60300
H1581       H  0.94407571  0.62432554  0.67178420     0.16600
O1582       O  0.93436249  0.56192648  0.67464355    -0.60400
H1583       H  0.92577682  0.55603031  0.64648068     0.43600
H1584       H  0.57178395  0.68801936  0.69282361     0.43600
C1585       C  0.75232419  0.75247191  0.87248538    -0.05500
C1586       C  0.78147430  0.77775064  0.85152551    -0.32900
C1587       C  0.78175611  0.77857796  0.80933901     0.36300
C1588       C  0.75239816  0.75391631  0.78734747    -0.05800
C1589       C  0.72287284  0.72927184  0.80850244    -0.32800
C1590       C  0.72268983  0.72839682  0.85065500     0.36200
H1591       H  0.80437233  0.79665139  0.86790401     0.16600
O1592       O  0.81088360  0.80361680  0.79004970    -0.60300
H1593       H  0.69989556  0.71026780  0.79234471     0.16600
O1594       O  0.69325656  0.70411623  0.87019141    -0.60400
H1595       H  0.67922617  0.71560761  0.87482664     0.43600
H1596       H  0.80713452  0.82377844  0.78732968     0.43600
C1597       C  0.74828198  0.99437072  0.87613471    -0.05500
C1598       C  0.77250127  0.52500218  0.85613786    -0.32900
C1599       C  0.77385223  0.52668461  0.81403982     0.36300
C1600       C  0.75059654  0.99753139  0.79095165    -0.05800
C1601       C  0.72656977  0.96686823  0.81065387    -0.32800
C1602       C  0.72546353  0.96498917  0.85287113     0.36200
H1603       H  0.79034530  0.54794032  0.87317802     0.16600
O1604       O  0.79731108  0.55723215  0.79580500    -0.60300
H1605       H  0.70868493  0.94419454  0.79323016     0.16600
O1606       O  0.70184574  0.93440586  0.87089285    -0.60400
H1607       H  0.68014289  0.93563102  0.87331198     0.43600
H1608       H  0.78433647  0.56977240  0.79091807     0.43600
C1609       C  0.91135793  0.75147226  0.99620740    -0.05500
C1610       C  0.88008769  0.71942736  0.99836409    -0.32900
C1611       C  0.84767670  0.71789153  0.99802452     0.36300
C1612       C  0.84601205  0.74879648  0.99532496    -0.05800
C1613       C  0.87726885  0.78069923  0.99265560    -0.32800
C1614       C  0.90954816  0.78223740  0.99277329     0.36200
H1615       H  0.88063762  0.69534991  0.00068722     0.16600
O1616       O  0.81794642  0.68602400  0.00033307    -0.60300
H1617       H  0.87687316  0.80485174  0.99028283     0.16600
O1618       O  0.93911475  0.81416422  0.98978606    -0.60400
H1619       H  0.94375584  0.81804137  0.96044388     0.43600
H1620       H  0.81365888  0.68119162  0.02959438     0.43600
C1621       C  0.59998223  0.75657449  0.00073352    -0.05500
C1622       C  0.59903434  0.72445349  0.00024531    -0.32900
C1623       C  0.62958679  0.72266409  0.99992281     0.36300
C1624       C  0.66226615  0.75344446  0.99922467    -0.05800
C1625       C  0.66334992  0.78568474  0.00015892    -0.32800
C1626       C  0.63264182  0.78745984  0.00099150     0.36200
H1627       H  0.57438889  0.70027655  0.00025147     0.16600
O1628       O  0.62695051  0.69052008  0.99989149    -0.60300
H1629       H  0.68809940  0.80975665  0.00024872     0.16600
O1630       O  0.63501714  0.81947665  0.00270998    -0.60400
H1631       H  0.63879819  0.82787596  0.97446251     0.43600
H1632       H  0.62468574  0.68371253  0.02869018     0.43600
C1633       C  0.50843044  0.75447241  0.87526635    -0.05500
C1634       C  0.48871191  0.72251870  0.85507394    -0.32900
C1635       C  0.48797814  0.72072497  0.81303965     0.36300
C1636       C  0.50718147  0.75108398  0.79033452    -0.05800
C1637       C  0.02781310  0.78292141  0.81009804    -0.32800
C1638       C  0.02839815  0.78487246  0.85227603     0.36200
H1639       H  0.47342924  0.69871115  0.87184332     0.16600
O1640       O  0.46852493  0.68910542  0.79438982    -0.60300
H1641       H  0.04281718  0.80646751  0.79274168     0.16600
O1642       O  0.04810103  0.81665974  0.87045483    -0.60400
H1643       H  0.07143118  0.81907617  0.87440344     0.43600
H1644       H  0.48491310  0.68028945  0.78980461     0.43600
C1645       C  0.83933351  0.99563094  0.00327802    -0.05500
C1646       C  0.83959840  0.96459983  0.99553946    -0.32900
C1647       C  0.87083160  0.96387444  0.99528156     0.36300
C1648       C  0.90271503  0.99455695  0.00305147    -0.05800
C1649       C  0.90242692  0.52541964  0.01138016    -0.32800
C1650       C  0.87120507  0.52610307  0.01190962     0.36200
H1651       H  0.81553194  0.94076030  0.98909720     0.16600
O1652       O  0.86975378  0.93302934  0.98706639    -0.60300
H1653       H  0.92648050  0.54923595  0.01794020     0.16600
O1654       O  0.87225962  0.55679311  0.02100114    -0.60400
H1655       H  0.86911710  0.55637024  0.05065709     0.43600
H1656       H  0.87253358  0.93278861  0.95740290     0.43600
C1657       C  0.59019216  0.99738414  0.00192877    -0.05500
C1658       C  0.59057770  0.96658598  0.01049920    -0.32900
C1659       C  0.62176040  0.96581122  0.01065360     0.36300
C1660       C  0.65347035  0.99607285  0.00124159    -0.05800
C1661       C  0.65311685  0.52684489  0.99273101    -0.32800
C1662       C  0.62193833  0.52767326  0.99294419     0.36200
H1663       H  0.56662010  0.94293848  0.01768702     0.16600
O1664       O  0.62079218  0.93530288  0.02036655    -0.60300
H1665       H  0.67706630  0.55048089  0.98550030     0.16600
O1666       O  0.62293232  0.55835357  0.98416016    -0.60400
H1667       H  0.62021129  0.55818682  0.95444832     0.43600
H1668       H  0.62311829  0.93581666  0.05015878     0.43600
C1669       C  0.49680784  0.99379643  0.87882737    -0.05500
C1670       C  0.52575191  0.51980392  0.85850361    -0.32900
C1671       C  0.52732769  0.52022221  0.81637448     0.36300
C1672       C  0.49897339  0.99501944  0.79378893    -0.05800
C1673       C  0.97010733  0.96859688  0.81422621    -0.32800
C1674       C  0.96911853  0.96750413  0.85636606     0.36200
H1675       H  0.54751417  0.53987402  0.87537196     0.16600
O1676       O  0.55617063  0.54625810  0.79770457    -0.60300
H1677       H  0.94819707  0.94858140  0.79750983     0.16600
O1678       O  0.94030062  0.94160646  0.87524246    -0.60400
H1679       H  0.94421731  0.92145723  0.87610860     0.43600
H1680       H  0.57342063  0.53816704  0.79733326     0.43600
C1681       C  0.74887462  0.75345020  0.45359472    -0.05500
C1682       C  0.77478122  0.75000681  0.47414529    -0.32900
C1683       C  0.77554671  0.74937673  0.51629912     0.36300
C1684       C  0.74954646  0.75121262  0.53883257    -0.05800
C1685       C  0.72334023  0.75420877  0.51840136    -0.32800
C1686       C  0.72315660  0.75587458  0.47617129     0.36200
H1687       H  0.79480738  0.74806092  0.45748768     0.16600
O1688       O  0.80104524  0.74554269  0.53512057    -0.60300
H1689       H  0.70321201  0.75582245  0.53524944     0.16600
O1690       O  0.69699365  0.75855328  0.45732541    -0.60400
H1691       H  0.70462696  0.78371054  0.45784892     0.43600
H1692       H  0.82181253  0.76918551  0.53575844     0.43600
C1693       C  0.75066035  0.75068135  0.20475198    -0.05500
C1694       C  0.73355682  0.76456037  0.18211211    -0.32900
C1695       C  0.73394577  0.76397693  0.13992191     0.36300
C1696       C  0.75133632  0.74916566  0.11972245    -0.05800
C1697       C  0.76789095  0.73478283  0.14187368    -0.32800
C1698       C  0.76800679  0.73572794  0.18403345     0.36200
H1699       H  0.71992818  0.77603433  0.19706071     0.16600
O1700       O  0.71725615  0.77794454  0.11865881    -0.60300
H1701       H  0.78154109  0.72355184  0.12640696     0.16600
O1702       O  0.78614742  0.72293585  0.20448109    -0.60400
H1703       H  0.76995125  0.69752207  0.20637510     0.43600
H1704       H  0.69473436  0.75778666  0.11004320     0.43600
C1705       C  0.74810238  0.00205769  0.45796814    -0.05500
C1706       C  0.77324263  0.99732333  0.47845104    -0.32900
C1707       C  0.77486421  0.99809197  0.52058322     0.36300
C1708       C  0.75045080  0.00264324  0.54306600    -0.05800
C1709       C  0.72502090  0.50711826  0.52279153    -0.32800
C1710       C  0.72406115  0.50748706  0.48061159     0.36200
H1711       H  0.79199452  0.99328595  0.46178220     0.16600
O1712       O  0.79940499  0.99278465  0.53948280    -0.60300
H1713       H  0.70619166  0.51085969  0.53971850     0.16600
O1714       O  0.69901270  0.51214153  0.46195287    -0.60400
H1715       H  0.70853934  0.53766779  0.46166574     0.43600
H1716       H  0.82111810  0.01571879  0.53916287     0.43600
C1717       C  0.74772298  0.99942749  0.20962021    -0.05500
C1718       C  0.74330516  0.02425010  0.18812759    -0.32900
C1719       C  0.74290680  0.02414188  0.14591818     0.36300
C1720       C  0.74680288  0.99883543  0.12446542    -0.05800
C1721       C  0.75245954  0.47487032  0.14576054    -0.32800
C1722       C  0.75313594  0.47512994  0.18790398     0.36200
H1723       H  0.74025309  0.04392364  0.20405405     0.16600
O1724       O  0.73811850  0.04852252  0.12600547    -0.60300
H1725       H  0.75683048  0.45608998  0.12966790     0.16600
O1726       O  0.75892795  0.45126620  0.20746757    -0.60400
H1727       H  0.73548324  0.43062234  0.21121966     0.43600
H1728       H  0.71267033  0.03713572  0.12089213     0.43600
C1729       C  0.49527200  0.74857640  0.45754421    -0.05500
C1730       C  0.52607356  0.75679377  0.47806154    -0.32900
C1731       C  0.52701748  0.75626452  0.52008139     0.36300
C1732       C  0.49659573  0.74718794  0.54270929    -0.05800
C1733       C  0.96546996  0.73837729  0.52199002    -0.32800
C1734       C  0.96474740  0.73927650  0.47967910     0.36200
H1735       H  0.54973769  0.76389780  0.46135060     0.16600
O1736       O  0.55799530  0.76467366  0.53855538    -0.60300
H1737       H  0.94167988  0.73097784  0.53853071     0.16600
O1738       O  0.93380360  0.72942043  0.46023367    -0.60400
H1739       H  0.93172988  0.75065852  0.45932479     0.43600
H1740       H  0.55791492  0.74236292  0.54112326     0.43600
C1741       C  0.84143532  0.59266878  0.33517149    -0.05500
C1742       C  0.84244770  0.62366658  0.34666899    -0.32900
C1743       C  0.87387111  0.65532700  0.34701899     0.36300
C1744       C  0.90511938  0.65663281  0.33501392    -0.05800
C1745       C  0.90427005  0.62554012  0.32455847    -0.32800
C1746       C  0.87289350  0.59385100  0.32441069     0.36200
H1747       H  0.81880725  0.62340054  0.35580042     0.16600
O1748       O  0.87366002  0.68472500  0.35952372    -0.60300
H1749       H  0.92795207  0.62579683  0.31564492     0.16600
O1750       O  0.87336262  0.56432291  0.31312038    -0.60400
H1751       H  0.87028631  0.56291161  0.28340872     0.43600
H1752       H  0.87913161  0.68675078  0.38876749     0.43600
C1753       C  0.65397298  0.90780674  0.33499802    -0.05500
C1754       C  0.65411296  0.87690206  0.34394700    -0.32900
C1755       C  0.62310504  0.84486599  0.34514004     0.36300
C1756       C  0.59095817  0.84295779  0.33644759    -0.05800
C1757       C  0.59073798  0.87391683  0.32814124    -0.32800
C1758       C  0.62171931  0.90602420  0.32738040     0.36200
H1759       H  0.67838612  0.87748766  0.35053766     0.16600
O1760       O  0.62467707  0.81568711  0.35510147    -0.60300
H1761       H  0.56643697  0.87331389  0.32168462     0.16600
O1762       O  0.61998784  0.93540720  0.31912429    -0.60400
H1763       H  0.62072268  0.93719920  0.28928991     0.43600
H1764       H  0.62260913  0.81413562  0.38491303     0.43600
C1765       C  0.50265746  0.75080004  0.20919722    -0.05500
C1766       C  0.00135342  0.77772387  0.18852643    -0.32900
C1767       C  0.00273426  0.77941148  0.14635957     0.36300
C1768       C  0.50479086  0.75353045  0.12387028    -0.05800
C1769       C  0.50619310  0.72660396  0.14443868    -0.32800
C1770       C  0.50576683  0.72541549  0.18669695     0.36200
H1771       H  0.99943860  0.79777292  0.20512708     0.16600
O1772       O  0.00148262  0.80623909  0.12746605    -0.60300
H1773       H  0.50801567  0.70655334  0.12770413     0.16600
O1774       O  0.50717890  0.69864987  0.20553575    -0.60400
H1775       H  0.53234437  0.70610270  0.20705900     0.43600
H1776       H  0.97635181  0.79770426  0.12277794     0.43600
C1777       C  0.49410739  0.99657170  0.54540376    -0.05500
C1778       C  0.52024698  0.99412080  0.52432829    -0.32900
C1779       C  0.52162607  0.99541416  0.48221274     0.36300
C1780       C  0.49707853  0.00021698  0.46008306    -0.05800
C1781       C  0.97094900  0.50289833  0.48120417    -0.32800
C1782       C  0.96905299  0.50063995  0.52348138     0.36200
H1783       H  0.53971040  0.99092918  0.54061450     0.16600
O1784       O  0.54793502  0.99316765  0.46314412    -0.60300
H1785       H  0.95168218  0.50640614  0.46493650     0.16600
O1786       O  0.94361412  0.50403132  0.54310757    -0.60400
H1787       H  0.92257526  0.48059213  0.54206641     0.43600
H1788       H  0.53981541  0.96792858  0.46153918     0.43600
C1789       C  0.90651835  0.90939830  0.33165429    -0.05500
C1790       C  0.90532109  0.87851057  0.34366521    -0.32900
C1791       C  0.87401019  0.84677681  0.34282610     0.36300
C1792       C  0.84292257  0.84540500  0.32989516    -0.05800
C1793       C  0.84422933  0.87622057  0.31725728    -0.32800
C1794       C  0.87559680  0.90794462  0.31791237     0.36200
H1795       H  0.92867514  0.87894174  0.35437593     0.16600
O1796       O  0.87395738  0.81753431  0.35626803    -0.60300
H1797       H  0.82088186  0.87575997  0.30646655     0.16600
O1798       O  0.87588144  0.93710302  0.30368926    -0.60400
H1799       H  0.86768392  0.94564786  0.32651033     0.43600
H1800       H  0.88111429  0.80877819  0.33268533     0.43600
C1801       C  0.65627130  0.65969093  0.32957125    -0.05500
C1802       C  0.62448178  0.65932411  0.32523931    -0.32900
C1803       C  0.59259446  0.62806627  0.32623843     0.36300
C1804       C  0.59184969  0.59616402  0.33232687    -0.05800
C1805       C  0.62365786  0.59651305  0.33587948    -0.32800
C1806       C  0.65551146  0.62769550  0.33464050     0.36200
H1807       H  0.62420657  0.68338399  0.32089748     0.16600
O1808       O  0.56240114  0.62920174  0.32125629    -0.60300
H1809       H  0.62399283  0.57246936  0.34005283     0.16600
O1810       O  0.68569665  0.62636843  0.33842112    -0.60400
H1811       H  0.69007531  0.62728692  0.36786447     0.43600
H1812       H  0.55834337  0.62765192  0.29170362     0.43600
C1813       C  0.99776785  0.99906351  0.12625559    -0.05500
C1814       C  0.00096481  0.97364636  0.14782053    -0.32900
C1815       C  0.00174435  0.97413400  0.18998124     0.36300
C1816       C  0.99883202  0.00015325  0.21131483    -0.05800
C1817       C  0.49505169  0.52521322  0.18965167    -0.32800
C1818       C  0.49482455  0.52499917  0.14747691     0.36200
H1819       H  0.00314260  0.95343211  0.13193138     0.16600
O1820       O  0.00382641  0.94817765  0.20995249    -0.60300
H1821       H  0.49244762  0.54522987  0.20539781     0.16600
O1822       O  0.48992834  0.54920290  0.12730825    -0.60400
H1823       H  0.51310265  0.57064189  0.12714820     0.43600
H1824       H  0.02892387  0.95525847  0.20977233     0.43600
loop_ 
_geom_bond_atom_site_label_1 
_geom_bond_atom_site_label_2 
_geom_bond_distance 
_geom_bond_site_symmetry_2 
_ccdc_geom_bond_type 
O1           C11   1.276       .  A
O1         Cu465   1.997       .  S
O2           C12   1.277       .  A
O2         Cu921   2.006   1_455  S
O3          C469   1.279       .  A
O3           Cu9   2.009       .  S
O4          C926   1.280       .  A
O4           Cu9   2.023       .  S
O5          C470   1.277   1_455  A
O5          Cu10   2.002       .  S
O6          C925   1.276   1_455  A
O6          Cu10   1.995       .  S
O7           C12   1.280       .  A
O7         Cu466   2.017   1_545  S
O8           C11   1.279       .  A
O8         Cu922   2.012       .  S
Cu9         O457   1.998   1_545  S
Cu9         O914   2.006       .  S
Cu9       Cu1378   2.368   1_545  S
Cu10        O463   2.017       .  S
Cu10        O920   2.012   1_455  S
Cu10      Cu1377   2.368   1_455  S
C11         C421   1.482       .  S
C12         C436   1.489       .  S
C13         O459   1.279       .  A
C13         O918   1.276       .  A
C13         C448   1.478       .  S
C14         O916   1.280       .  A
C14         O461   1.277   1_645  A
C14         C868   1.487       .  S
O15          C25   1.279       .  A
O15        Cu935   2.011       .  S
O16          C26   1.279       .  A
O16         Cu23   2.012       .  S
O17          C27   1.277   1_455  A
O17         Cu23   1.999       .  S
O18          C28   1.277       .  A
O18         Cu23   2.009       .  S
O19         C940   1.280       .  A
O19         Cu24   2.016       .  S
O20         C939   1.278       .  A
O20         Cu24   2.013       .  S
O21          C26   1.278       .  A
O21        Cu936   2.009   1_455  S
O22          C25   1.277       .  A
O22         Cu24   2.002       .  S
Cu23        O927   2.011   1_455  S
Cu23       Cu936   2.370   1_455  S
Cu24        O933   2.009       .  S
Cu24       Cu935   2.370       .  S
C25         C376   1.482       .  S
C26         C388   1.487       .  S
C27         O932   1.278       .  A
C27         C361   1.472       .  S
C28         O931   1.280   1_455  A
C28         C397   1.484       .  S
O29          C39   1.279       .  A
O29         Cu37   2.012       .  S
O30          C40   1.279       .  A
O30        Cu493   2.014       .  S
O31         C497   1.277       .  A
O31         Cu37   2.003       .  S
O32         C498   1.278       .  A
O32         Cu37   2.007       .  S
O33          C42   1.277       .  A
O33         Cu38   2.002       .  S
O34          C41   1.278       .  A
O34         Cu38   2.000       .  S
O35          C40   1.278       .  A
O35         Cu38   2.005       .  S
O36          C39   1.277       .  A
O36        Cu494   2.003   1_545  S
Cu37        O486   2.014   1_545  S
Cu37       Cu494   2.369   1_545  S
Cu38        O492   2.002       .  S
Cu38       Cu493   2.369       .  S
C39         C373   1.484       .  S
C40         C385   1.487       .  S
C41         O487   1.277       .  A
C41         C337   1.479       .  S
C42         O488   1.278       .  A
C42         C349   1.482       .  S
O43          C53   1.280       .  A
O43         Cu51   2.020       .  S
O44          C54   1.280       .  A
O44         Cu51   2.017       .  S
O45          C55   1.279       .  A
O45         Cu51   2.015       .  S
O46          C56   1.280       .  A
O46         Cu51   2.017       .  S
O47          C56   1.276       .  A
O47         Cu52   1.998       .  S
O48          C55   1.277       .  A
O48         Cu52   2.002       .  S
O49          C54   1.276       .  A
O49         Cu52   1.993       .  S
O50          C53   1.276       .  A
O50         Cu52   1.996       .  S
Cu51        Cu52   2.368       .  S
C53         C313   1.482       .  S
C54         C325   1.485       .  S
C55         C433   1.488       .  S
C56         C424   1.483       .  S
O57          C67   1.278       .  A
O57        Cu977   2.000   1_455  S
O58          C68   1.277       .  A
O58         Cu65   2.001       .  S
O59         C981   1.277       .  A
O59         Cu65   2.004   1_556  S
O60          C70   1.278       .  A
O60         Cu65   2.003       .  S
O61        C1438   1.276   1_445  A
O61         Cu66   1.998       .  S
O62         C525   1.277   1_445  A
O62         Cu66   1.998   1_556  S
O63         C524   1.278   1_545  A
O63        Cu978   2.003       .  S
O64         C523   1.277   1_545  A
O64         Cu66   2.002       .  S
Cu65        O969   2.000       .  S
Cu65      Cu1434   2.372       .  S
Cu66        O975   2.003   1_455  S
Cu66      Cu1433   2.372   1_445  S
C67         O520   1.277       .  A
C67         C289   1.481       .  S
C68         O519   1.278       .  A
C68         C280   1.480       .  S
C69         O971   1.277       .  A
C69         O518   1.277   1_655  A
C69         C301   1.473       .  S
C70        O1429   1.276       .  A
C70         C445   1.472       .  S
O71         C993   1.277       .  A
O71         Cu79   1.998       .  S
O72         C994   1.277       .  A
O72         Cu79   2.004   1_554  S
O73          C83   1.277       .  A
O73         Cu79   2.004       .  S
O74          C84   1.277       .  A
O74        Cu991   1.989   1_454  S
O75          C84   1.277       .  A
O75         Cu80   2.006   1_554  S
O76          C83   1.278       .  A
O76        Cu992   2.003       .  S
O77          C82   1.279       .  A
O77         Cu80   2.012   1_554  S
O78          C81   1.278       .  A
O78         Cu80   2.010       .  S
Cu79        O986   1.989   1_556  S
Cu79       Cu992   2.369       .  S
Cu80        O988   2.004   1_455  S
Cu80       Cu991   2.369   1_455  S
C81         O983   1.277   1_455  A
C81         C265   1.482       .  S
C82         O984   1.277   1_455  A
C82         C400   1.480       .  S
C83         C241   1.485       .  S
C84         C253   1.480       .  S
O85          C95   1.277       .  A
O85         Cu93   1.999       .  S
O86          C96   1.277       .  A
O86         Cu93   2.002       .  S
O87          C97   1.279       .  A
O87         Cu93   2.015   1_556  S
O88          C98   1.278       .  A
O88         Cu93   2.008       .  S
O89         C554   1.276   1_545  A
O89         Cu94   2.000   1_554  S
O90         C553   1.278   1_545  A
O90         Cu94   2.001       .  S
O91         C552   1.278   1_546  A
O91         Cu94   2.003       .  S
O92         C551   1.278   1_545  A
O92         Cu94   2.002   1_554  S
Cu93       Cu550   2.370       .  S
Cu94       Cu549   2.370   1_546  S
C95         O548   1.278       .  A
C95         C277   1.481       .  S
C96         O547   1.278   1_554  A
C96         C292   1.482       .  S
C97         O546   1.278       .  A
C97         C229   1.485       .  S
C98         O545   1.276       .  A
C98         C352   1.473       .  S
O99         C109   1.278       .  A
O99        Cu107   2.006       .  S
O100        C110   1.277       .  A
O100       Cu107   2.006   1_554  S
O101        C111   1.278       .  A
O101       Cu107   2.001       .  S
O102        C112   1.278       .  A
O102       Cu107   2.009       .  S
O103        C112   1.278       .  A
O103       Cu108   1.999       .  S
O104        C111   1.276       .  A
O104       Cu108   1.994       .  S
O105        C110   1.276       .  A
O105       Cu108   1.999   1_554  S
O106        C109   1.277       .  A
O106       Cu108   2.003       .  S
Cu107      Cu108   2.372       .  S
C109        C217   1.474       .  S
C110        C328   1.464       .  S
C111        C256   1.480       .  S
C112        C244   1.484       .  S
O113       C1035   1.278       .  A
O113       Cu121   2.003       .  S
O114       C1036   1.277       .  A
O114       Cu121   2.013       .  S
O115       C1037   1.279       .  A
O115       Cu121   2.012       .  S
O116       C1038   1.278       .  A
O116       Cu577   2.010   1_545  S
O117        C126   1.278   1_455  A
O117       Cu122   2.003       .  S
O118        C125   1.277   1_455  A
O118       Cu578   2.002       .  S
O119        C580   1.279   1_445  A
O119       Cu122   2.008       .  S
O120        C579   1.277   1_445  A
O120       Cu122   2.005       .  S
Cu121       O572   2.010       .  S
Cu121     Cu1490   2.369       .  S
Cu122       O574   2.003   1_545  S
Cu122     Cu1489   2.369   1_445  S
C123       O1025   1.278       .  A
C123        O576   1.277   1_655  A
C123        C304   1.478       .  S
C124       O1026   1.277       .  A
C124        O575   1.279   1_655  A
C124        C409   1.480       .  S
C125       O1027   1.279       .  A
C125        C196   1.485       .  S
C126       O1028   1.278       .  A
C126        C205   1.486       .  S
O127       C1049   1.278       .  A
O127       Cu135   2.002       .  S
O128       C1050   1.277       .  A
O128       Cu135   1.999       .  S
O129       C1051   1.278       .  A
O129       Cu135   2.008       .  S
O130       C1052   1.279       .  A
O130       Cu135   2.018       .  S
O131        C140   1.276   1_455  A
O131       Cu136   1.994       .  S
O132        C139   1.275       .  A
O132       Cu136   1.993       .  S
O133        C138   1.279       .  A
O133       Cu136   2.018       .  S
O134        C137   1.278       .  A
O134       Cu136   2.008       .  S
Cu135     Cu1048   2.370       .  S
Cu136     Cu1047   2.370   1_455  S
C137       O1039   1.278   1_455  A
C137        C193   1.483   1_455  S
C138       O1040   1.277   1_455  A
C138        C208   1.487       .  S
C139       O1041   1.278   1_455  A
C139        C268   1.466       .  S
C140       O1042   1.279       .  A
C140        C364   1.485       .  S
O141        C151   1.277       .  A
O141       Cu605   2.003       .  S
O142        C152   1.279       .  A
O142       Cu149   2.007       .  S
O143        C609   1.278   1_545  A
O143       Cu149   2.009       .  S
O144        C610   1.277       .  A
O144       Cu149   2.007       .  S
O145        C154   1.277       .  A
O145       Cu150   2.004       .  S
O146        C153   1.277       .  A
O146       Cu150   2.004       .  S
O147        C152   1.278       .  A
O147       Cu606   2.013   1_545  S
O148        C151   1.279       .  A
O148       Cu150   2.004       .  S
Cu149       O597   2.003   1_545  S
Cu149      Cu606   2.370   1_545  S
Cu150       O603   2.012       .  S
Cu150      Cu605   2.370       .  S
C151        C169   1.482       .  S
C152        C181   1.488       .  S
C153        O599   1.278       .  A
C153        C232   1.475       .  S
C154        O600   1.277       .  A
C154        C340   1.474       .  S
O155        C165   1.278       .  A
O155       Cu163   2.005       .  S
O156        C166   1.278       .  A
O156       Cu163   2.008       .  S
O157        C167   1.278       .  A
O157       Cu163   2.006       .  S
O158        C168   1.277       .  A
O158       Cu163   2.005       .  S
O159        C168   1.278       .  A
O159       Cu164   2.005       .  S
O160        C167   1.278       .  A
O160       Cu164   2.011       .  S
O161        C166   1.279       .  A
O161       Cu164   2.012       .  S
O162        C165   1.277       .  A
O162       Cu164   2.001       .  S
Cu163      Cu164   2.369       .  S
C165        C172   1.483       .  S
C166        C184   1.489       .  S
C167        C316   1.479       .  S
C168        C220   1.480       .  S
C169        C170   1.404       .  A
C169        C174   1.412       .  A
C170        C171   1.397       .  A
C170        H175   1.083       .  S
C171        C172   1.412       .  A
C171        O176   1.372       .  S
C172        C173   1.406       .  A
C173        C174   1.400       .  A
C173        H177   1.083       .  S
C174        O178   1.372       .  S
O176        H180   0.992       .  S
O178        H179   0.992       .  S
C181        C182   1.406       .  A
C181        C186   1.413       .  A
C182        C183   1.399       .  A
C182        H187   1.083       .  S
C183        C184   1.412       .  A
C183        O188   1.372       .  S
C184        C185   1.407       .  A
C185        C186   1.402       .  A
C185        H189   1.083       .  S
C186        O190   1.371       .  S
O188        H192   0.992       .  S
O190        H191   0.992       .  S
C193        C198   1.411   1_655  A
C193       C1106   1.405       .  A
C194        C195   1.399       .  A
C194       C1105   1.405       .  A
C194        H199   1.083       .  S
C195       C1108   1.411       .  A
C195        O200   1.371       .  S
C196        C197   1.407   1_655  A
C196       C1107   1.411       .  A
C197        C198   1.400       .  A
C197        H201   1.083       .  S
C198        O202   1.372       .  S
O200        H204   0.992       .  S
O202        H203   0.992       .  S
C205        C206   1.407   1_655  A
C205       C1122   1.411       .  A
C206        C207   1.400       .  A
C206        H211   1.083       .  S
C207        C208   1.411       .  A
C207        O212   1.371       .  S
C208       C1121   1.407   1_455  A
C209        C210   1.399       .  A
C209       C1120   1.407       .  A
C209        H213   1.083       .  S
C210       C1117   1.411       .  A
C210        O214   1.372       .  S
O212        H216   0.992       .  S
O214        H215   0.992       .  S
C217        C218   1.403       .  A
C217        C222   1.408       .  A
C218        C219   1.399       .  A
C218        H223   1.084       .  S
C219        C220   1.412       .  A
C219        O224   1.372       .  S
C220        C221   1.405       .  A
C221        C222   1.398       .  A
C221        H225   1.083       .  S
C222        O226   1.372       .  S
O224        H228   0.992       .  S
O226        H227   0.992       .  S
C229        C234   1.413       .  A
C229        C686   1.407       .  A
C230        C231   1.397       .  A
C230        C685   1.407   1_545  A
C230        H235   1.083       .  S
C231        C688   1.406   1_545  A
C231        O236   1.372       .  S
C232        C233   1.404       .  A
C232        C687   1.406       .  A
C233        C234   1.402       .  A
C233        H237   1.084       .  S
C234        O238   1.372       .  S
O236        H240   0.992       .  S
O238        H239   0.992       .  S
C241        C242   1.407       .  A
C241        C246   1.411       .  A
C242        C243   1.401       .  A
C242        H247   1.083   1_556  S
C243        C244   1.412       .  A
C243        O248   1.372   1_556  S
C244        C245   1.405       .  A
C245        C246   1.395       .  A
C245        H249   1.083       .  S
C246        O250   1.371       .  S
O248        H252   0.992       .  S
O250        H251   0.992       .  S
C253        C254   1.405       .  A
C253        C258   1.411       .  A
C254        C255   1.393       .  A
C254        H259   1.083       .  S
C255        C256   1.410   1_554  A
C255        O260   1.372       .  S
C256        C257   1.407       .  A
C257        C258   1.400   1_556  A
C257        H261   1.083       .  S
C258        O262   1.372       .  S
O260        H264   0.992       .  S
O262        H263   0.992   1_554  S
C265        C266   1.407   1_455  A
C265       C1182   1.414       .  A
C266        C267   1.395       .  A
C266        H271   1.083       .  S
C267        C268   1.403   1_655  A
C267        O272   1.372       .  S
C268       C1181   1.402       .  A
C269        C270   1.400       .  A
C269       C1180   1.402       .  A
C269        H273   1.084       .  S
C270       C1177   1.414       .  A
C270        O274   1.372       .  S
O272        H276   0.992       .  S
O274        H275   0.992       .  S
C277        C278   1.405   1_554  A
C277        C738   1.411       .  A
C278        C279   1.398       .  A
C278        H283   1.083       .  S
C279        C280   1.412   1_556  A
C279        O284   1.372       .  S
C280        C737   1.404       .  A
C281        C282   1.397       .  A
C281        C736   1.404   1_545  A
C281        H285   1.083       .  S
C282        C733   1.411   1_545  A
C282        O286   1.372       .  S
O284        H288   0.992       .  S
O286        H287   0.992       .  S
C289        C290   1.405       .  A
C289        C750   1.411   1_554  A
C290        C291   1.397       .  A
C290        H295   1.083       .  S
C291        C292   1.412       .  A
C291        O296   1.372       .  S
C292        C749   1.405   1_554  A
C293        C294   1.398       .  A
C293        C748   1.405   1_546  A
C293        H297   1.083       .  S
C294        C745   1.411   1_546  A
C294        O298   1.372       .  S
O296        H300   0.992       .  S
O298        H299   0.992       .  S
C301        C758   1.403   1_655  A
C301       C1218   1.407       .  A
C302        C303   1.398       .  A
C302        C757   1.403   1_445  A
C302        H307   1.084       .  S
C303        C760   1.410   1_445  A
C303        O308   1.371       .  S
C304        C759   1.410   1_655  A
C304       C1217   1.406       .  A
C305        C306   1.398       .  A
C305       C1216   1.406       .  A
C305        H309   1.084       .  S
C306       C1213   1.407       .  A
C306        O310   1.372       .  S
O308        H312   0.992       .  S
O310        H311   0.992       .  S
C313        C314   1.406       .  A
C313        C318   1.410       .  A
C314        C315   1.399       .  A
C314        H319   1.084       .  S
C315        C316   1.408       .  A
C315        O320   1.372       .  S
C316        C317   1.405       .  A
C317        C318   1.402       .  A
C317        H321   1.084       .  S
C318        O322   1.372       .  S
O320        H324   0.992       .  S
O322        H323   0.992       .  S
C325        C326   1.408       .  A
C325        C330   1.417       .  A
C326        C327   1.399       .  A
C326        H331   1.083       .  S
C327        C328   1.405       .  A
C327        O332   1.373       .  S
C328        C329   1.397       .  A
C329        C330   1.398       .  A
C329        H333   1.084       .  S
C330        O334   1.372       .  S
O332        H336   0.992       .  S
O334        H335   0.992       .  S
C337        C338   1.405       .  A
C337        C798   1.411       .  A
C338        C339   1.398       .  A
C338        H343   1.084       .  S
C339        C340   1.407       .  A
C339        O344   1.372       .  S
C340        C797   1.403       .  A
C341        C342   1.399       .  A
C341        C796   1.403       .  A
C341        H345   1.084       .  S
C342        C793   1.411       .  A
C342        O346   1.372       .  S
O344        H348   0.992       .  S
O346        H347   0.992       .  S
C349        C350   1.406       .  A
C349        C810   1.412       .  A
C350        C351   1.399       .  A
C350        H355   1.083       .  S
C351        C352   1.408       .  A
C351        O356   1.372       .  S
C352        C809   1.401       .  A
C353        C354   1.397       .  A
C353        C808   1.402       .  A
C353        H357   1.084       .  S
C354        C805   1.411       .  A
C354        O358   1.371       .  S
O356        H360   0.992       .  S
O358        H359   0.992       .  S
C361        C362   1.398   1_655  A
C361       C1278   1.408       .  A
C362        C363   1.394       .  A
C362        H367   1.084       .  S
C363        C364   1.414   1_455  A
C363        O368   1.371       .  S
C364       C1277   1.409       .  A
C365        C366   1.404       .  A
C365       C1276   1.409       .  A
C365        H369   1.083       .  S
C366       C1273   1.408       .  A
C366        O370   1.372       .  S
O368        H372   0.992       .  S
O370        H371   0.992       .  S
C373        C374   1.405       .  A
C373        C378   1.412       .  A
C374        C375   1.400       .  A
C374        H379   1.083       .  S
C375        C376   1.412       .  A
C375        O380   1.372       .  S
C376        C377   1.404       .  A
C377        C378   1.399       .  A
C377        H381   1.083       .  S
C378        O382   1.371       .  S
O380        H384   0.992       .  S
O382        H383   0.992       .  S
C385        C386   1.406       .  A
C385        C390   1.412       .  A
C386        C387   1.400       .  A
C386        H391   1.083       .  S
C387        C388   1.412       .  A
C387        O392   1.372       .  S
C388        C389   1.406       .  A
C389        C390   1.401       .  A
C389        H393   1.083       .  S
C390        O394   1.372       .  S
O392        H396   0.992       .  S
O394        H395   0.992       .  S
C397        C402   1.412       .  A
C397       C1310   1.405       .  A
C398        C399   1.400       .  A
C398       C1309   1.405       .  A
C398        H403   1.083       .  S
C399       C1312   1.409       .  A
C399        O404   1.372       .  S
C400        C401   1.405       .  A
C400       C1311   1.409       .  A
C401        C402   1.402       .  A
C401        H405   1.084       .  S
C402        O406   1.372       .  S
O404        H408   0.992       .  S
O406        H407   0.992       .  S
C409        C410   1.401   1_655  A
C409       C1782   1.410       .  A
C410        C411   1.398       .  A
C410        H415   1.084       .  S
C411        C412   1.412   1_455  A
C411        O416   1.371       .  S
C412        C470   1.487       .  S
C412       C1781   1.408       .  A
C413        C414   1.405       .  A
C413       C1780   1.408       .  A
C413        H417   1.083       .  S
C414       C1777   1.410   1_545  A
C414        O418   1.372       .  S
O416        H420   0.992       .  S
O418        H419   0.992   1_545  S
C421        C422   1.403       .  A
C421        C426   1.412       .  A
C422        C423   1.399       .  A
C422        H427   1.083       .  S
C423        C424   1.413       .  A
C423        O428   1.372       .  S
C424        C425   1.404       .  A
C425        C426   1.400       .  A
C425        H429   1.083       .  S
C426        O430   1.372       .  S
O428        H432   0.992       .  S
O430        H431   0.992       .  S
C433        C434   1.406       .  A
C433        C438   1.413       .  A
C434        C435   1.402       .  A
C434        H439   1.083       .  S
C435        C436   1.414       .  A
C435        O440   1.372       .  S
C436        C437   1.405       .  A
C437        C438   1.400       .  A
C437        H441   1.083       .  S
C438        O442   1.372       .  S
O440        H444   0.992       .  S
O442        H443   0.992       .  S
C445        C446   1.402       .  A
C445       C1818   1.408       .  A
C446        C447   1.398       .  A
C446        H451   1.084       .  S
C447        C448   1.412       .  A
C447        O452   1.372       .  S
C448       C1817   1.404       .  A
C449        C450   1.398       .  A
C449       C1816   1.404       .  A
C449        H453   1.084       .  S
C450       C1813   1.408   1_545  A
C450        O454   1.372       .  S
O452        H456   0.992       .  S
O454        H455   0.992   1_655  S
O457        C467   1.276       .  A
O458        C468   1.277       .  A
O458      Cu1377   2.006   1_455  S
O459       Cu465   2.009       .  S
O460       C1382   1.280       .  A
O460       Cu465   2.023       .  S
O461       Cu466   2.002       .  S
O462       C1381   1.276   1_465  A
O462       Cu466   1.996       .  S
O463        C468   1.280       .  A
O464        C467   1.279       .  A
O464      Cu1378   2.012       .  S
Cu465      O1370   2.006       .  S
Cu465      Cu922   2.368       .  S
Cu466      O1376   2.012   1_455  S
Cu466      Cu921   2.368   1_465  S
C467        C877   1.482       .  S
C468        C892   1.489       .  S
C469       O1374   1.276   1_545  A
C469        C904   1.478       .  S
C470       O1372   1.280       .  A
O471        C481   1.279       .  A
O471      Cu1391   2.012       .  S
O472        C482   1.279       .  A
O472       Cu479   2.012       .  S
O473        C483   1.277   1_455  A
O473       Cu479   1.999       .  S
O474        C484   1.277       .  A
O474       Cu479   2.009       .  S
O475       C1396   1.280       .  A
O475       Cu480   2.016       .  S
O476       C1395   1.278       .  A
O476       Cu480   2.013       .  S
O477        C482   1.278       .  A
O477      Cu1392   2.009   1_455  S
O478        C481   1.277       .  A
O478       Cu480   2.002       .  S
Cu479      O1383   2.012   1_455  S
Cu479     Cu1392   2.370   1_455  S
Cu480      O1389   2.009       .  S
Cu480     Cu1391   2.370       .  S
C481        C832   1.482       .  S
C482        C844   1.487       .  S
C483       O1388   1.278       .  A
C483        C817   1.472       .  S
C484       O1387   1.280   1_455  A
C484        C853   1.484       .  S
O485        C495   1.279       .  A
O485       Cu493   2.013       .  S
O486        C496   1.279       .  A
O487       Cu493   2.004       .  S
O488       Cu493   2.008       .  S
O489        C498   1.277   1_565  A
O489       Cu494   2.002       .  S
O490        C497   1.278   1_565  A
O490       Cu494   2.000       .  S
O491        C496   1.278       .  A
O491       Cu494   2.006       .  S
O492        C495   1.277       .  A
C495        C829   1.484       .  S
C496        C841   1.487       .  S
C497        C793   1.479       .  S
C498        C805   1.480   1_545  S
O499        C509   1.280       .  A
O499       Cu507   2.020       .  S
O500        C510   1.280       .  A
O500       Cu507   2.017       .  S
O501        C511   1.279       .  A
O501       Cu507   2.015       .  S
O502        C512   1.279       .  A
O502       Cu507   2.017       .  S
O503        C512   1.276       .  A
O503       Cu508   1.998       .  S
O504        C511   1.277       .  A
O504       Cu508   2.002       .  S
O505        C510   1.276       .  A
O505       Cu508   1.993       .  S
O506        C509   1.277       .  A
O506       Cu508   1.996       .  S
Cu507      Cu508   2.368       .  S
C509        C769   1.482       .  S
C510        C781   1.485       .  S
C511        C889   1.488       .  S
C512        C880   1.483       .  S
O513        C523   1.278       .  A
O513      Cu1433   2.000   1_455  S
O514        C524   1.277       .  A
O514       Cu521   2.001       .  S
O515       C1437   1.277       .  A
O515       Cu521   2.004   1_556  S
O516        C526   1.278       .  A
O516       Cu521   2.003       .  S
O517        C982   1.276   1_455  A
O517       Cu522   1.998       .  S
O518       Cu522   1.997   1_556  S
O519      Cu1434   2.003       .  S
O520       Cu522   2.002       .  S
Cu521      O1425   2.000       .  S
Cu521      Cu978   2.372   1_565  S
Cu522      O1431   2.003   1_455  S
Cu522      Cu977   2.372   1_455  S
C523        C745   1.481       .  S
C524        C736   1.480       .  S
C525       O1427   1.277       .  A
C525        C757   1.473       .  S
C526        O973   1.276   1_565  A
C526        C901   1.472       .  S
O527       C1449   1.277       .  A
O527       Cu535   1.997       .  S
O528       C1450   1.277       .  A
O528       Cu535   2.005   1_554  S
O529        C539   1.277       .  A
O529       Cu535   2.004       .  S
O530        C540   1.277   1_556  A
O530      Cu1447   1.989   1_455  S
O531        C540   1.277       .  A
O531       Cu536   2.006   1_554  S
O532        C539   1.278       .  A
O532      Cu1448   2.003       .  S
O533        C538   1.279       .  A
O533       Cu536   2.012   1_554  S
O534        C537   1.278       .  A
O534       Cu536   2.010       .  S
Cu535      O1442   1.990   1_556  S
Cu535     Cu1448   2.369       .  S
Cu536      O1444   2.003   1_455  S
Cu536     Cu1447   2.369   1_455  S
C537       O1439   1.277   1_455  A
C537        C721   1.482       .  S
C538       O1440   1.277   1_455  A
C538        C856   1.480       .  S
C539        C697   1.485       .  S
C540        C709   1.480       .  S
O541        C551   1.277       .  A
O541       Cu549   1.999       .  S
O542        C552   1.277       .  A
O542       Cu549   2.001       .  S
O543        C553   1.279       .  A
O543       Cu549   2.015   1_556  S
O544        C554   1.278       .  A
O544       Cu549   2.008       .  S
O545       Cu550   2.000       .  S
O546       Cu550   2.002   1_556  S
O547       Cu550   2.002   1_556  S
O548       Cu550   2.003       .  S
C551        C733   1.481       .  S
C552        C748   1.482       .  S
C553        C685   1.484       .  S
C554        C808   1.474       .  S
O555        C565   1.278       .  A
O555       Cu563   2.006       .  S
O556        C566   1.277       .  A
O556       Cu563   2.006   1_554  S
O557        C567   1.278       .  A
O557       Cu563   2.001       .  S
O558        C568   1.278       .  A
O558       Cu563   2.009       .  S
O559        C568   1.278       .  A
O559       Cu564   1.999       .  S
O560        C567   1.276       .  A
O560       Cu564   1.995       .  S
O561        C566   1.276       .  A
O561       Cu564   1.999   1_554  S
O562        C565   1.277       .  A
O562       Cu564   2.003       .  S
Cu563      Cu564   2.372       .  S
C565        C673   1.474       .  S
C566        C784   1.464       .  S
C567        C712   1.481       .  S
C568        C700   1.484       .  S
O569       C1491   1.278       .  A
O569       Cu577   2.003       .  S
O570       C1492   1.277       .  A
O570       Cu577   2.013       .  S
O571       C1493   1.279       .  A
O571       Cu577   2.012       .  S
O572       C1494   1.278       .  A
O573        C582   1.278   1_455  A
O573       Cu578   2.003       .  S
O574        C581   1.277   1_455  A
O575       Cu578   2.008       .  S
O576       Cu578   2.005       .  S
Cu577     Cu1034   2.369   1_565  S
Cu578     Cu1033   2.369   1_455  S
C579       O1481   1.278       .  A
C579        C760   1.478       .  S
C580       O1482   1.277       .  A
C580        C865   1.480       .  S
C581       O1483   1.279       .  A
C581        C652   1.486       .  S
C582       O1484   1.278       .  A
C582        C661   1.487       .  S
O583       C1505   1.278       .  A
O583       Cu591   2.002       .  S
O584       C1506   1.277       .  A
O584       Cu591   1.999       .  S
O585       C1507   1.278       .  A
O585       Cu591   2.008       .  S
O586       C1508   1.279       .  A
O586       Cu591   2.018       .  S
O587        C596   1.276   1_455  A
O587       Cu592   1.993       .  S
O588        C595   1.275       .  A
O588       Cu592   1.993       .  S
O589        C594   1.279       .  A
O589       Cu592   2.017       .  S
O590        C593   1.278       .  A
O590       Cu592   2.008       .  S
Cu591     Cu1504   2.370       .  S
Cu592     Cu1503   2.370   1_455  S
C593       O1495   1.278   1_455  A
C593        C649   1.483   1_455  S
C594       O1496   1.277   1_455  A
C594        C664   1.487       .  S
C595       O1497   1.278   1_455  A
C595        C724   1.466       .  S
C596       O1498   1.279       .  A
C596        C820   1.485       .  S
O597        C607   1.277       .  A
O598        C608   1.279       .  A
O598       Cu605   2.007       .  S
O599       Cu605   2.008       .  S
O600       Cu605   2.007       .  S
O601        C610   1.277   1_565  A
O601       Cu606   2.004       .  S
O602        C609   1.277       .  A
O602       Cu606   2.004       .  S
O603        C608   1.278       .  A
O604        C607   1.279       .  A
O604       Cu606   2.004       .  S
C607        C625   1.482       .  S
C608        C637   1.488       .  S
C609        C688   1.475       .  S
C610        C796   1.474       .  S
O611        C621   1.278       .  A
O611       Cu619   2.005       .  S
O612        C622   1.278       .  A
O612       Cu619   2.007       .  S
O613        C623   1.278       .  A
O613       Cu619   2.006       .  S
O614        C624   1.277       .  A
O614       Cu619   2.005       .  S
O615        C624   1.278       .  A
O615       Cu620   2.005       .  S
O616        C623   1.278       .  A
O616       Cu620   2.011       .  S
O617        C622   1.279       .  A
O617       Cu620   2.012       .  S
O618        C621   1.277       .  A
O618       Cu620   2.001       .  S
Cu619      Cu620   2.369       .  S
C621        C628   1.483       .  S
C622        C640   1.488       .  S
C623        C772   1.479       .  S
C624        C676   1.480       .  S
C625        C626   1.404       .  A
C625        C630   1.412       .  A
C626        C627   1.397       .  A
C626        H631   1.083       .  S
C627        C628   1.412       .  A
C627        O632   1.372       .  S
C628        C629   1.406       .  A
C629        C630   1.400       .  A
C629        H633   1.083       .  S
C630        O634   1.372       .  S
O632        H636   0.992       .  S
O634        H635   0.992       .  S
C637        C638   1.406       .  A
C637        C642   1.413       .  A
C638        C639   1.399       .  A
C638        H643   1.083       .  S
C639        C640   1.412       .  A
C639        O644   1.372       .  S
C640        C641   1.407       .  A
C641        C642   1.402       .  A
C641        H645   1.083       .  S
C642        O646   1.371       .  S
O644        H648   0.992       .  S
O646        H647   0.992       .  S
C649       C1562   1.405       .  A
C649        C654   1.411   1_655  A
C650       C1561   1.405       .  A
C650        C651   1.399       .  A
C650        H655   1.083       .  S
C651       C1564   1.411       .  A
C651        O656   1.371       .  S
C652       C1563   1.411       .  A
C652        C653   1.407   1_655  A
C653        C654   1.400       .  A
C653        H657   1.083       .  S
C654        O658   1.372       .  S
O656        H660   0.992       .  S
O658        H659   0.992       .  S
C661        C662   1.407   1_655  A
C661       C1578   1.411       .  A
C662        C663   1.400       .  A
C662        H667   1.083       .  S
C663        C664   1.411       .  A
C663        O668   1.371       .  S
C664       C1577   1.407   1_455  A
C665       C1576   1.407       .  A
C665        C666   1.399       .  A
C665        H669   1.083       .  S
C666       C1573   1.411       .  A
C666        O670   1.372       .  S
O668        H672   0.992       .  S
O670        H671   0.992       .  S
C673        C674   1.403       .  A
C673        C678   1.408       .  A
C674        C675   1.399       .  A
C674        H679   1.084       .  S
C675        C676   1.412       .  A
C675        O680   1.372       .  S
C676        C677   1.405       .  A
C677        C678   1.398       .  A
C677        H681   1.083       .  S
C678        O682   1.372       .  S
O680        H684   0.992       .  S
O682        H683   0.992       .  S
C685        C690   1.413       .  A
C686        C687   1.398       .  A
C686        H691   1.083       .  S
C687        O692   1.372       .  S
C688        C689   1.404       .  A
C689        C690   1.402       .  A
C689        H693   1.084       .  S
C690        O694   1.372       .  S
O692        H696   0.992       .  S
O694        H695   0.992       .  S
C697        C698   1.407       .  A
C697        C702   1.411       .  A
C698        C699   1.401       .  A
C698        H703   1.083   1_556  S
C699        C700   1.412       .  A
C699        O704   1.372   1_556  S
C700        C701   1.405       .  A
C701        C702   1.395       .  A
C701        H705   1.083       .  S
C702        O706   1.371       .  S
O704        H708   0.992       .  S
O706        H707   0.992       .  S
C709        C710   1.405       .  A
C709        C714   1.411       .  A
C710        C711   1.393   1_554  A
C710        H715   1.083   1_554  S
C711        C712   1.410       .  A
C711        O716   1.372       .  S
C712        C713   1.407   1_556  A
C713        C714   1.400       .  A
C713        H717   1.083       .  S
C714        O718   1.372       .  S
O716        H720   0.992   1_556  S
O718        H719   0.992   1_554  S
C721        C722   1.407   1_455  A
C721       C1638   1.414       .  A
C722        C723   1.395       .  A
C722        H727   1.083       .  S
C723        C724   1.403   1_655  A
C723        O728   1.372       .  S
C724       C1637   1.402       .  A
C725       C1636   1.402       .  A
C725        C726   1.400       .  A
C725        H729   1.084       .  S
C726       C1633   1.414       .  A
C726        O730   1.372       .  S
O728        H732   0.992       .  S
O730        H731   0.992       .  S
C733        C734   1.405   1_554  A
C734        C735   1.398       .  A
C734        H739   1.083       .  S
C735        C736   1.412   1_556  A
C735        O740   1.372       .  S
C737        C738   1.397       .  A
C737        H741   1.083       .  S
C738        O742   1.372       .  S
O740        H744   0.992       .  S
O742        H743   0.992       .  S
C745        C746   1.405       .  A
C746        C747   1.397       .  A
C746        H751   1.083       .  S
C747        C748   1.412       .  A
C747        O752   1.372       .  S
C749        C750   1.398       .  A
C749        H753   1.083       .  S
C750        O754   1.372       .  S
O752        H756   0.992       .  S
O754        H755   0.992       .  S
C757       C1674   1.407       .  A
C758        C759   1.398       .  A
C758        H763   1.084       .  S
C759        O764   1.371       .  S
C760       C1673   1.405       .  A
C761       C1672   1.405       .  A
C761        C762   1.398       .  A
C761        H765   1.084       .  S
C762       C1669   1.407       .  A
C762        O766   1.372       .  S
O764        H768   0.992       .  S
O766        H767   0.992       .  S
C769        C770   1.406       .  A
C769        C774   1.410       .  A
C770        C771   1.399       .  A
C770        H775   1.084       .  S
C771        C772   1.408       .  A
C771        O776   1.372       .  S
C772        C773   1.405       .  A
C773        C774   1.402       .  A
C773        H777   1.084       .  S
C774        O778   1.372       .  S
O776        H780   0.992       .  S
O778        H779   0.992       .  S
C781        C782   1.408       .  A
C781        C786   1.417       .  A
C782        C783   1.399       .  A
C782        H787   1.083       .  S
C783        C784   1.405       .  A
C783        O788   1.373       .  S
C784        C785   1.397       .  A
C785        C786   1.398       .  A
C785        H789   1.084       .  S
C786        O790   1.372       .  S
O788        H792   0.992       .  S
O790        H791   0.992       .  S
C793        C794   1.405   1_545  A
C794        C795   1.398       .  A
C794        H799   1.084       .  S
C795        C796   1.407   1_565  A
C795        O800   1.372       .  S
C797        C798   1.399       .  A
C797        H801   1.084       .  S
C798        O802   1.372       .  S
O800        H804   0.992   1_565  S
O802        H803   0.992       .  S
C805        C806   1.406   1_565  A
C806        C807   1.399       .  A
C806        H811   1.084       .  S
C807        C808   1.409   1_545  A
C807        O812   1.372       .  S
C809        C810   1.397       .  A
C809        H813   1.084       .  S
C810        O814   1.371       .  S
O812        H816   0.992       .  S
O814        H815   0.992       .  S
C817        C818   1.398   1_655  A
C817       C1734   1.408       .  A
C818        C819   1.394       .  A
C818        H823   1.084       .  S
C819        C820   1.414   1_455  A
C819        O824   1.371       .  S
C820       C1733   1.409       .  A
C821       C1732   1.409       .  A
C821        C822   1.404       .  A
C821        H825   1.083       .  S
C822       C1729   1.408       .  A
C822        O826   1.372       .  S
O824        H828   0.992       .  S
O826        H827   0.992       .  S
C829        C830   1.405       .  A
C829        C834   1.413       .  A
C830        C831   1.400       .  A
C830        H835   1.083       .  S
C831        C832   1.412       .  A
C831        O836   1.372       .  S
C832        C833   1.404       .  A
C833        C834   1.399       .  A
C833        H837   1.083       .  S
C834        O838   1.371       .  S
O836        H840   0.992       .  S
O838        H839   0.992       .  S
C841        C842   1.406       .  A
C841        C846   1.412       .  A
C842        C843   1.400       .  A
C842        H847   1.083       .  S
C843        C844   1.412       .  A
C843        O848   1.372       .  S
C844        C845   1.406       .  A
C845        C846   1.401       .  A
C845        H849   1.083       .  S
C846        O850   1.372       .  S
O848        H852   0.992       .  S
O850        H851   0.992       .  S
C853       C1766   1.405       .  A
C853        C858   1.412       .  A
C854       C1765   1.405       .  A
C854        C855   1.400       .  A
C854        H859   1.083       .  S
C855       C1768   1.409       .  A
C855        O860   1.372       .  S
C856       C1767   1.409       .  A
C856        C857   1.405       .  A
C857        C858   1.402       .  A
C857        H861   1.084       .  S
C858        O862   1.372       .  S
O860        H864   0.992       .  S
O862        H863   0.992       .  S
C865        C866   1.401   1_655  A
C865       C1326   1.410   1_565  A
C866        C867   1.398       .  A
C866        H871   1.084       .  S
C867        C868   1.412   1_465  A
C867        O872   1.371       .  S
C868       C1325   1.408       .  A
C869       C1324   1.408       .  A
C869        C870   1.405       .  A
C869        H873   1.083       .  S
C870       C1321   1.410       .  A
C870        O874   1.372       .  S
O872        H876   0.992       .  S
O874        H875   0.992       .  S
C877        C878   1.403       .  A
C877        C882   1.412       .  A
C878        C879   1.399       .  A
C878        H883   1.083       .  S
C879        C880   1.412       .  A
C879        O884   1.372       .  S
C880        C881   1.404       .  A
C881        C882   1.400       .  A
C881        H885   1.083       .  S
C882        O886   1.372       .  S
O884        H888   0.992       .  S
O886        H887   0.992       .  S
C889        C890   1.406       .  A
C889        C894   1.413       .  A
C890        C891   1.402       .  A
C890        H895   1.083       .  S
C891        C892   1.414       .  A
C891        O896   1.372       .  S
C892        C893   1.405       .  A
C893        C894   1.399       .  A
C893        H897   1.083       .  S
C894        O898   1.372       .  S
O896        H900   0.992       .  S
O898        H899   0.992       .  S
C901        C902   1.402       .  A
C901       C1362   1.408   1_565  A
C902        C903   1.398       .  A
C902        H907   1.084       .  S
C903        C904   1.412   1_565  A
C903        O908   1.372       .  S
C904       C1361   1.404       .  A
C905       C1360   1.404       .  A
C905        C906   1.398       .  A
C905        H909   1.084       .  S
C906       C1357   1.408       .  A
C906        O910   1.372       .  S
O908        H912   0.992       .  S
O910        H911   0.992   1_655  S
O913        C923   1.276       .  A
O913      Cu1377   1.998       .  S
O914        C924   1.277       .  A
O915       C1381   1.279       .  A
O915       Cu921   2.009       .  S
O916       Cu921   2.023       .  S
O917       C1382   1.277       .  A
O917       Cu922   2.002       .  S
O918       Cu922   1.996       .  S
O919        C924   1.280       .  A
O919      Cu1378   2.017   1_545  S
O920        C923   1.279       .  A
Cu921      O1369   1.998   1_545  S
Cu922      O1375   2.017       .  S
C923       C1333   1.482       .  S
C924       C1348   1.489       .  S
C925       O1371   1.279       .  A
C925       C1360   1.478       .  S
C926       O1373   1.277   1_545  A
C926       C1780   1.487       .  S
O927        C937   1.279       .  A
O928        C938   1.279       .  A
O928       Cu935   2.011       .  S
O929        C939   1.277       .  A
O929       Cu935   1.999       .  S
O930        C940   1.277       .  A
O930       Cu935   2.008       .  S
O931       Cu936   2.016       .  S
O932       Cu936   2.013       .  S
O933        C938   1.278       .  A
O934        C937   1.277       .  A
O934       Cu936   2.002       .  S
C937       C1288   1.482       .  S
C938       C1300   1.487       .  S
C939       C1273   1.472       .  S
C940       C1309   1.484       .  S
O941        C951   1.279       .  A
O941       Cu949   2.012       .  S
O942        C952   1.279       .  A
O942      Cu1405   2.014       .  S
O943       C1409   1.277       .  A
O943       Cu949   2.004       .  S
O944       C1410   1.278       .  A
O944       Cu949   2.007       .  S
O945        C954   1.277       .  A
O945       Cu950   2.002       .  S
O946        C953   1.278       .  A
O946       Cu950   2.000       .  S
O947        C952   1.278       .  A
O947       Cu950   2.005       .  S
O948        C951   1.277       .  A
O948      Cu1406   2.003   1_545  S
Cu949      O1398   2.014   1_545  S
Cu949     Cu1406   2.369   1_545  S
Cu950      O1404   2.002       .  S
Cu950     Cu1405   2.369       .  S
C951       C1285   1.484       .  S
C952       C1297   1.487       .  S
C953       O1399   1.277       .  A
C953       C1249   1.479       .  S
C954       O1400   1.278       .  A
C954       C1261   1.482       .  S
O955        C965   1.280       .  A
O955       Cu963   2.020       .  S
O956        C966   1.280       .  A
O956       Cu963   2.017       .  S
O957        C967   1.279       .  A
O957       Cu963   2.015       .  S
O958        C968   1.280       .  A
O958       Cu963   2.017       .  S
O959        C968   1.276       .  A
O959       Cu964   1.998       .  S
O960        C967   1.277       .  A
O960       Cu964   2.002       .  S
O961        C966   1.276       .  A
O961       Cu964   1.993       .  S
O962        C965   1.276       .  A
O962       Cu964   1.996       .  S
Cu963      Cu964   2.368       .  S
C965       C1225   1.482       .  S
C966       C1237   1.485       .  S
C967       C1345   1.488       .  S
C968       C1336   1.483       .  S
O969        C979   1.278       .  A
O970        C980   1.277       .  A
O970       Cu977   2.001       .  S
O971       Cu977   2.004   1_556  S
O972        C982   1.278       .  A
O972       Cu977   2.003       .  S
O973       Cu978   1.998       .  S
O974       C1437   1.277   1_545  A
O974       Cu978   1.998   1_556  S
O975       C1436   1.278   1_545  A
O976       C1435   1.277   1_545  A
O976       Cu978   2.002       .  S
C979       O1432   1.277       .  A
C979       C1201   1.481       .  S
C980       O1431   1.278       .  A
C980       C1192   1.481       .  S
C981       O1430   1.277       .  A
C981       C1213   1.473       .  S
C982       C1357   1.472       .  S
O983       Cu991   1.998       .  S
O984       Cu991   2.004   1_554  S
O985        C995   1.277       .  A
O985       Cu991   2.004       .  S
O986        C996   1.277       .  A
O987        C996   1.277       .  A
O987       Cu992   2.006   1_554  S
O988        C995   1.278       .  A
O989        C994   1.279       .  A
O989       Cu992   2.012   1_554  S
O990        C993   1.278       .  A
O990       Cu992   2.010       .  S
C993       C1177   1.482       .  S
C994       C1312   1.480       .  S
C995       C1153   1.485       .  S
C996       C1165   1.480       .  S
O997       C1007   1.277       .  A
O997      Cu1005   1.999       .  S
O998       C1008   1.277       .  A
O998      Cu1005   2.002       .  S
O999       C1009   1.279       .  A
O999      Cu1005   2.015   1_556  S
O1000      C1010   1.278       .  A
O1000     Cu1005   2.008       .  S
O1001      C1466   1.276   1_545  A
O1001     Cu1006   2.000   1_554  S
O1002      C1465   1.278   1_545  A
O1002     Cu1006   2.001       .  S
O1003      C1464   1.278   1_546  A
O1003     Cu1006   2.002       .  S
O1004      C1463   1.278   1_545  A
O1004     Cu1006   2.002   1_554  S
Cu1005    Cu1462   2.370   1_554  S
Cu1006    Cu1461   2.370   1_546  S
C1007      O1460   1.278       .  A
C1007      C1189   1.481       .  S
C1008      O1459   1.278   1_554  A
C1008      C1204   1.482       .  S
C1009      O1458   1.278       .  A
C1009      C1141   1.485       .  S
C1010      O1457   1.276       .  A
C1010      C1264   1.472       .  S
O1011      C1021   1.278       .  A
O1011     Cu1019   2.007       .  S
O1012      C1022   1.277       .  A
O1012     Cu1019   2.006   1_554  S
O1013      C1023   1.278       .  A
O1013     Cu1019   2.001       .  S
O1014      C1024   1.278       .  A
O1014     Cu1019   2.009       .  S
O1015      C1024   1.278       .  A
O1015     Cu1020   1.999       .  S
O1016      C1023   1.276       .  A
O1016     Cu1020   1.994       .  S
O1017      C1022   1.276       .  A
O1017     Cu1020   1.999   1_554  S
O1018      C1021   1.277       .  A
O1018     Cu1020   2.003       .  S
Cu1019    Cu1020   2.372       .  S
C1021      C1129   1.474       .  S
C1022      C1240   1.464       .  S
C1023      C1168   1.480       .  S
C1024      C1156   1.484       .  S
O1025     Cu1033   2.003       .  S
O1026     Cu1033   2.013       .  S
O1027     Cu1033   2.012       .  S
O1028     Cu1489   2.010   1_545  S
O1029      C1038   1.278       .  A
O1029     Cu1034   2.003       .  S
O1030      C1037   1.277       .  A
O1030     Cu1490   2.002       .  S
O1031      C1492   1.279   1_545  A
O1031     Cu1034   2.008       .  S
O1032      C1491   1.277   1_545  A
O1032     Cu1034   2.005       .  S
Cu1033     O1484   2.010       .  S
Cu1034     O1486   2.003   1_545  S
C1035      O1488   1.277       .  A
C1035      C1216   1.478       .  S
C1036      O1487   1.279       .  A
C1036      C1321   1.480       .  S
C1037      C1108   1.485       .  S
C1038      C1117   1.486       .  S
O1039     Cu1047   2.002       .  S
O1040     Cu1047   1.999       .  S
O1041     Cu1047   2.008       .  S
O1042     Cu1047   2.018       .  S
O1043      C1052   1.276       .  A
O1043     Cu1048   1.994       .  S
O1044      C1051   1.275       .  A
O1044     Cu1048   1.993       .  S
O1045      C1050   1.279       .  A
O1045     Cu1048   2.017       .  S
O1046      C1049   1.278       .  A
O1046     Cu1048   2.008       .  S
C1049      C1105   1.483       .  S
C1050      C1120   1.487       .  S
C1051      C1180   1.466       .  S
C1052      C1276   1.485       .  S
O1053      C1063   1.277       .  A
O1053     Cu1517   2.003       .  S
O1054      C1064   1.279       .  A
O1054     Cu1061   2.007       .  S
O1055      C1521   1.278   1_545  A
O1055     Cu1061   2.009       .  S
O1056      C1522   1.277       .  A
O1056     Cu1061   2.007       .  S
O1057      C1066   1.277       .  A
O1057     Cu1062   2.004       .  S
O1058      C1065   1.277       .  A
O1058     Cu1062   2.004       .  S
O1059      C1064   1.278       .  A
O1059     Cu1518   2.013   1_545  S
O1060      C1063   1.279       .  A
O1060     Cu1062   2.004       .  S
Cu1061     O1509   2.003   1_545  S
Cu1061    Cu1518   2.370   1_545  S
Cu1062     O1515   2.012       .  S
Cu1062    Cu1517   2.370       .  S
C1063      C1081   1.482       .  S
C1064      C1093   1.488       .  S
C1065      O1511   1.278       .  A
C1065      C1144   1.475       .  S
C1066      O1512   1.277       .  A
C1066      C1252   1.474       .  S
O1067      C1077   1.278       .  A
O1067     Cu1075   2.005       .  S
O1068      C1078   1.278       .  A
O1068     Cu1075   2.008       .  S
O1069      C1079   1.278       .  A
O1069     Cu1075   2.006       .  S
O1070      C1080   1.277       .  A
O1070     Cu1075   2.005       .  S
O1071      C1080   1.278       .  A
O1071     Cu1076   2.005       .  S
O1072      C1079   1.278       .  A
O1072     Cu1076   2.011       .  S
O1073      C1078   1.279       .  A
O1073     Cu1076   2.012       .  S
O1074      C1077   1.277       .  A
O1074     Cu1076   2.002       .  S
Cu1075    Cu1076   2.369       .  S
C1077      C1084   1.483       .  S
C1078      C1096   1.488       .  S
C1079      C1228   1.479       .  S
C1080      C1132   1.480       .  S
C1081      C1082   1.404       .  A
C1081      C1086   1.412       .  A
C1082      C1083   1.397       .  A
C1082      H1087   1.083       .  S
C1083      C1084   1.412       .  A
C1083      O1088   1.372       .  S
C1084      C1085   1.406       .  A
C1085      C1086   1.400       .  A
C1085      H1089   1.083       .  S
C1086      O1090   1.372       .  S
O1088      H1092   0.992       .  S
O1090      H1091   0.992       .  S
C1093      C1094   1.406       .  A
C1093      C1098   1.413       .  A
C1094      C1095   1.399       .  A
C1094      H1099   1.083       .  S
C1095      C1096   1.412       .  A
C1095      O1100   1.372       .  S
C1096      C1097   1.407       .  A
C1097      C1098   1.402       .  A
C1097      H1101   1.083       .  S
C1098      O1102   1.371       .  S
O1100      H1104   0.992       .  S
O1102      H1103   0.992       .  S
C1105      C1110   1.411       .  A
C1106      C1107   1.399       .  A
C1106      H1111   1.083       .  S
C1107      O1112   1.371       .  S
C1108      C1109   1.407       .  A
C1109      C1110   1.400       .  A
C1109      H1113   1.083       .  S
C1110      O1114   1.372       .  S
O1112      H1116   0.992       .  S
O1114      H1115   0.992       .  S
C1117      C1118   1.407       .  A
C1118      C1119   1.400       .  A
C1118      H1123   1.083       .  S
C1119      C1120   1.411       .  A
C1119      O1124   1.371       .  S
C1121      C1122   1.399       .  A
C1121      H1125   1.083       .  S
C1122      O1126   1.372       .  S
O1124      H1128   0.992       .  S
O1126      H1127   0.992       .  S
C1129      C1130   1.403       .  A
C1129      C1134   1.408       .  A
C1130      C1131   1.399       .  A
C1130      H1135   1.084       .  S
C1131      C1132   1.412       .  A
C1131      O1136   1.372       .  S
C1132      C1133   1.405       .  A
C1133      C1134   1.398       .  A
C1133      H1137   1.083       .  S
C1134      O1138   1.372       .  S
O1136      H1140   0.992       .  S
O1138      H1139   0.992       .  S
C1141      C1598   1.407       .  A
C1141      C1146   1.413       .  A
C1142      C1597   1.407   1_545  A
C1142      C1143   1.398       .  A
C1142      H1147   1.083       .  S
C1143      C1600   1.406   1_545  A
C1143      O1148   1.372       .  S
C1144      C1599   1.406       .  A
C1144      C1145   1.404       .  A
C1145      C1146   1.402       .  A
C1145      H1149   1.084       .  S
C1146      O1150   1.372       .  S
O1148      H1152   0.992       .  S
O1150      H1151   0.992       .  S
C1153      C1154   1.407       .  A
C1153      C1158   1.411       .  A
C1154      C1155   1.401       .  A
C1154      H1159   1.083   1_556  S
C1155      C1156   1.412       .  A
C1155      O1160   1.372       .  S
C1156      C1157   1.405       .  A
C1157      C1158   1.395       .  A
C1157      H1161   1.083       .  S
C1158      O1162   1.371       .  S
O1160      H1164   0.992   1_556  S
O1162      H1163   0.992       .  S
C1165      C1166   1.405       .  A
C1165      C1170   1.411       .  A
C1166      C1167   1.393       .  A
C1166      H1171   1.083       .  S
C1167      C1168   1.410   1_554  A
C1167      O1172   1.372       .  S
C1168      C1169   1.407       .  A
C1169      C1170   1.400   1_556  A
C1169      H1173   1.083       .  S
C1170      O1174   1.372       .  S
O1172      H1176   0.992       .  S
O1174      H1175   0.992   1_554  S
C1177      C1178   1.407       .  A
C1178      C1179   1.395       .  A
C1178      H1183   1.083       .  S
C1179      C1180   1.403       .  A
C1179      O1184   1.372       .  S
C1181      C1182   1.400       .  A
C1181      H1185   1.084       .  S
C1182      O1186   1.372       .  S
O1184      H1188   0.992       .  S
O1186      H1187   0.992       .  S
C1189      C1190   1.405   1_554  A
C1189      C1650   1.411       .  A
C1190      C1191   1.398       .  A
C1190      H1195   1.083       .  S
C1191      C1192   1.412   1_556  A
C1191      O1196   1.372       .  S
C1192      C1649   1.404       .  A
C1193      C1648   1.404   1_545  A
C1193      C1194   1.397       .  A
C1193      H1197   1.083       .  S
C1194      C1645   1.411   1_545  A
C1194      O1198   1.372       .  S
O1196      H1200   0.992       .  S
O1198      H1199   0.992       .  S
C1201      C1202   1.405       .  A
C1201      C1662   1.411   1_554  A
C1202      C1203   1.397       .  A
C1202      H1207   1.083       .  S
C1203      C1204   1.412       .  A
C1203      O1208   1.372       .  S
C1204      C1661   1.405   1_554  A
C1205      C1660   1.405   1_546  A
C1205      C1206   1.398       .  A
C1205      H1209   1.083       .  S
C1206      C1657   1.411   1_546  A
C1206      O1210   1.372       .  S
O1208      H1212   0.992       .  S
O1210      H1211   0.992       .  S
C1213      C1670   1.403       .  A
C1214      C1669   1.403   1_545  A
C1214      C1215   1.398       .  A
C1214      H1219   1.084       .  S
C1215      C1672   1.410   1_545  A
C1215      O1220   1.371       .  S
C1216      C1671   1.410       .  A
C1217      C1218   1.398       .  A
C1217      H1221   1.084       .  S
C1218      O1222   1.372       .  S
O1220      H1224   0.992       .  S
O1222      H1223   0.992       .  S
C1225      C1226   1.406       .  A
C1225      C1230   1.410       .  A
C1226      C1227   1.399       .  A
C1226      H1231   1.084       .  S
C1227      C1228   1.408       .  A
C1227      O1232   1.372       .  S
C1228      C1229   1.405       .  A
C1229      C1230   1.402       .  A
C1229      H1233   1.084       .  S
C1230      O1234   1.372       .  S
O1232      H1236   0.992       .  S
O1234      H1235   0.992       .  S
C1237      C1238   1.408       .  A
C1237      C1242   1.417       .  A
C1238      C1239   1.399       .  A
C1238      H1243   1.083       .  S
C1239      C1240   1.405       .  A
C1239      O1244   1.373       .  S
C1240      C1241   1.397       .  A
C1241      C1242   1.398       .  A
C1241      H1245   1.084       .  S
C1242      O1246   1.372       .  S
O1244      H1248   0.992       .  S
O1246      H1247   0.992       .  S
C1249      C1250   1.405       .  A
C1249      C1710   1.411       .  A
C1250      C1251   1.398       .  A
C1250      H1255   1.084       .  S
C1251      C1252   1.407       .  A
C1251      O1256   1.372       .  S
C1252      C1709   1.403       .  A
C1253      C1708   1.403       .  A
C1253      C1254   1.399       .  A
C1253      H1257   1.084       .  S
C1254      C1705   1.411       .  A
C1254      O1258   1.372       .  S
O1256      H1260   0.992       .  S
O1258      H1259   0.992       .  S
C1261      C1262   1.407       .  A
C1261      C1722   1.413       .  A
C1262      C1263   1.400       .  A
C1262      H1267   1.083       .  S
C1263      C1264   1.408       .  A
C1263      O1268   1.372       .  S
C1264      C1721   1.401       .  A
C1265      C1720   1.401       .  A
C1265      C1266   1.397       .  A
C1265      H1269   1.084       .  S
C1266      C1717   1.412       .  A
C1266      O1270   1.371       .  S
O1268      H1272   0.992       .  S
O1270      H1271   0.992       .  S
C1273      C1274   1.398       .  A
C1274      C1275   1.394       .  A
C1274      H1279   1.084       .  S
C1275      C1276   1.414       .  A
C1275      O1280   1.371       .  S
C1277      C1278   1.404       .  A
C1277      H1281   1.083       .  S
C1278      O1282   1.372       .  S
O1280      H1284   0.992       .  S
O1282      H1283   0.992       .  S
C1285      C1286   1.405       .  A
C1285      C1290   1.412       .  A
C1286      C1287   1.400       .  A
C1286      H1291   1.083       .  S
C1287      C1288   1.412       .  A
C1287      O1292   1.372       .  S
C1288      C1289   1.404       .  A
C1289      C1290   1.399       .  A
C1289      H1293   1.083       .  S
C1290      O1294   1.371       .  S
O1292      H1296   0.992       .  S
O1294      H1295   0.992       .  S
C1297      C1298   1.406       .  A
C1297      C1302   1.412       .  A
C1298      C1299   1.400       .  A
C1298      H1303   1.083       .  S
C1299      C1300   1.412       .  A
C1299      O1304   1.372       .  S
C1300      C1301   1.406       .  A
C1301      C1302   1.401       .  A
C1301      H1305   1.083       .  S
C1302      O1306   1.372       .  S
O1304      H1308   0.992       .  S
O1306      H1307   0.992       .  S
C1309      C1314   1.412       .  A
C1310      C1311   1.400       .  A
C1310      H1315   1.083   1_455  S
C1311      O1316   1.372       .  S
C1312      C1313   1.405       .  A
C1313      C1314   1.402       .  A
C1313      H1317   1.084       .  S
C1314      O1318   1.372       .  S
O1316      H1320   0.992   1_455  S
O1318      H1319   0.992       .  S
C1321      C1322   1.401       .  A
C1322      C1323   1.398       .  A
C1322      H1327   1.084       .  S
C1323      C1324   1.412       .  A
C1323      O1328   1.371       .  S
C1324      C1382   1.487       .  S
C1325      C1326   1.405       .  A
C1325      H1329   1.083       .  S
C1326      O1330   1.372       .  S
O1328      H1332   0.992       .  S
O1330      H1331   0.992   1_545  S
C1333      C1334   1.403       .  A
C1333      C1338   1.412       .  A
C1334      C1335   1.399       .  A
C1334      H1339   1.083       .  S
C1335      C1336   1.413       .  A
C1335      O1340   1.372       .  S
C1336      C1337   1.404       .  A
C1337      C1338   1.400       .  A
C1337      H1341   1.083       .  S
C1338      O1342   1.372       .  S
O1340      H1344   0.992       .  S
O1342      H1343   0.992       .  S
C1345      C1346   1.406       .  A
C1345      C1350   1.413       .  A
C1346      C1347   1.402       .  A
C1346      H1351   1.083       .  S
C1347      C1348   1.414       .  A
C1347      O1352   1.372       .  S
C1348      C1349   1.405       .  A
C1349      C1350   1.399       .  A
C1349      H1353   1.083       .  S
C1350      O1354   1.372       .  S
O1352      H1356   0.992       .  S
O1354      H1355   0.992       .  S
C1357      C1358   1.402   1_655  A
C1358      C1359   1.398       .  A
C1358      H1363   1.084       .  S
C1359      C1360   1.412   1_455  A
C1359      O1364   1.372       .  S
C1361      C1362   1.398       .  A
C1361      H1365   1.084       .  S
C1362      O1366   1.372       .  S
O1364      H1368   0.992       .  S
O1366      H1367   0.992       .  S
O1369      C1379   1.276       .  A
O1370      C1380   1.277       .  A
O1371     Cu1377   2.009       .  S
O1372     Cu1377   2.023       .  S
O1373     Cu1378   2.002       .  S
O1374     Cu1378   1.996       .  S
O1375      C1380   1.280       .  A
O1376      C1379   1.279       .  A
C1379      C1789   1.482       .  S
C1380      C1804   1.489       .  S
C1381      C1816   1.478       .  S
O1383      C1393   1.279       .  A
O1384      C1394   1.279       .  A
O1384     Cu1391   2.012       .  S
O1385      C1395   1.277       .  A
O1385     Cu1391   1.999       .  S
O1386      C1396   1.277       .  A
O1386     Cu1391   2.009       .  S
O1387     Cu1392   2.017       .  S
O1388     Cu1392   2.013       .  S
O1389      C1394   1.278       .  A
O1390      C1393   1.277       .  A
O1390     Cu1392   2.002       .  S
C1393      C1744   1.482       .  S
C1394      C1756   1.487       .  S
C1395      C1729   1.472       .  S
C1396      C1765   1.484       .  S
O1397      C1407   1.279       .  A
O1397     Cu1405   2.013       .  S
O1398      C1408   1.279       .  A
O1399     Cu1405   2.004       .  S
O1400     Cu1405   2.008       .  S
O1401      C1410   1.277   1_565  A
O1401     Cu1406   2.002       .  S
O1402      C1409   1.278   1_565  A
O1402     Cu1406   2.000       .  S
O1403      C1408   1.278       .  A
O1403     Cu1406   2.006       .  S
O1404      C1407   1.277       .  A
C1407      C1741   1.484       .  S
C1408      C1753   1.487       .  S
C1409      C1705   1.479       .  S
C1410      C1717   1.481   1_545  S
O1411      C1421   1.280       .  A
O1411     Cu1419   2.020       .  S
O1412      C1422   1.280       .  A
O1412     Cu1419   2.017       .  S
O1413      C1423   1.279       .  A
O1413     Cu1419   2.015       .  S
O1414      C1424   1.280       .  A
O1414     Cu1419   2.017       .  S
O1415      C1424   1.276       .  A
O1415     Cu1420   1.998       .  S
O1416      C1423   1.277       .  A
O1416     Cu1420   2.002       .  S
O1417      C1422   1.276       .  A
O1417     Cu1420   1.993       .  S
O1418      C1421   1.277       .  A
O1418     Cu1420   1.996       .  S
Cu1419    Cu1420   2.368       .  S
C1421      C1681   1.482       .  S
C1422      C1693   1.485       .  S
C1423      C1801   1.488       .  S
C1424      C1792   1.483       .  S
O1425      C1435   1.278       .  A
O1426      C1436   1.277       .  A
O1426     Cu1433   2.001       .  S
O1427     Cu1433   2.004   1_556  S
O1428      C1438   1.278       .  A
O1428     Cu1433   2.003       .  S
O1429     Cu1434   1.998       .  S
O1430     Cu1434   1.998   1_556  S
O1432     Cu1434   2.002       .  S
C1435      C1657   1.481       .  S
C1436      C1648   1.481       .  S
C1437      C1669   1.473       .  S
C1438      C1813   1.472       .  S
O1439     Cu1447   1.997       .  S
O1440     Cu1447   2.005   1_554  S
O1441      C1451   1.277       .  A
O1441     Cu1447   2.004       .  S
O1442      C1452   1.277       .  A
O1443      C1452   1.277       .  A
O1443     Cu1448   2.006   1_554  S
O1444      C1451   1.278       .  A
O1445      C1450   1.279       .  A
O1445     Cu1448   2.012   1_554  S
O1446      C1449   1.278       .  A
O1446     Cu1448   2.010       .  S
C1449      C1633   1.482       .  S
C1450      C1768   1.480       .  S
C1451      C1609   1.485       .  S
C1452      C1621   1.480       .  S
O1453      C1463   1.277       .  A
O1453     Cu1461   1.999       .  S
O1454      C1464   1.277       .  A
O1454     Cu1461   2.002       .  S
O1455      C1465   1.279       .  A
O1455     Cu1461   2.015   1_556  S
O1456      C1466   1.278       .  A
O1456     Cu1461   2.008       .  S
O1457     Cu1462   2.000   1_554  S
O1458     Cu1462   2.001       .  S
O1459     Cu1462   2.002       .  S
O1460     Cu1462   2.003   1_554  S
C1463      C1645   1.481       .  S
C1464      C1660   1.482       .  S
C1465      C1597   1.484       .  S
C1466      C1720   1.474       .  S
O1467      C1477   1.278       .  A
O1467     Cu1475   2.006       .  S
O1468      C1478   1.277       .  A
O1468     Cu1475   2.006   1_554  S
O1469      C1479   1.278       .  A
O1469     Cu1475   2.001       .  S
O1470      C1480   1.278       .  A
O1470     Cu1475   2.009       .  S
O1471      C1480   1.278       .  A
O1471     Cu1476   1.999       .  S
O1472      C1479   1.276       .  A
O1472     Cu1476   1.995       .  S
O1473      C1478   1.276       .  A
O1473     Cu1476   1.999   1_554  S
O1474      C1477   1.277       .  A
O1474     Cu1476   2.003       .  S
Cu1475    Cu1476   2.372       .  S
C1477      C1585   1.474       .  S
C1478      C1696   1.464       .  S
C1479      C1624   1.481       .  S
C1480      C1612   1.484       .  S
O1481     Cu1489   2.003       .  S
O1482     Cu1489   2.013       .  S
O1483     Cu1489   2.012       .  S
O1485      C1494   1.278       .  A
O1485     Cu1490   2.003       .  S
O1486      C1493   1.277       .  A
O1487     Cu1490   2.008       .  S
O1488     Cu1490   2.005       .  S
C1491      C1672   1.478       .  S
C1492      C1777   1.480       .  S
C1493      C1564   1.486       .  S
C1494      C1573   1.487       .  S
O1495     Cu1503   2.002       .  S
O1496     Cu1503   1.999       .  S
O1497     Cu1503   2.008       .  S
O1498     Cu1503   2.018       .  S
O1499      C1508   1.276       .  A
O1499     Cu1504   1.993       .  S
O1500      C1507   1.275       .  A
O1500     Cu1504   1.993       .  S
O1501      C1506   1.279       .  A
O1501     Cu1504   2.018       .  S
O1502      C1505   1.278       .  A
O1502     Cu1504   2.008       .  S
C1505      C1561   1.483       .  S
C1506      C1576   1.487       .  S
C1507      C1636   1.466       .  S
C1508      C1732   1.485       .  S
O1509      C1519   1.277       .  A
O1510      C1520   1.279       .  A
O1510     Cu1517   2.007       .  S
O1511     Cu1517   2.009       .  S
O1512     Cu1517   2.007       .  S
O1513      C1522   1.277   1_565  A
O1513     Cu1518   2.004       .  S
O1514      C1521   1.277       .  A
O1514     Cu1518   2.004       .  S
O1515      C1520   1.278       .  A
O1516      C1519   1.279       .  A
O1516     Cu1518   2.004       .  S
C1519      C1537   1.482       .  S
C1520      C1549   1.488       .  S
C1521      C1600   1.475       .  S
C1522      C1708   1.474       .  S
O1523      C1533   1.278       .  A
O1523     Cu1531   2.005       .  S
O1524      C1534   1.278       .  A
O1524     Cu1531   2.007       .  S
O1525      C1535   1.278       .  A
O1525     Cu1531   2.006       .  S
O1526      C1536   1.277       .  A
O1526     Cu1531   2.005       .  S
O1527      C1536   1.278       .  A
O1527     Cu1532   2.005       .  S
O1528      C1535   1.278       .  A
O1528     Cu1532   2.011       .  S
O1529      C1534   1.279       .  A
O1529     Cu1532   2.012       .  S
O1530      C1533   1.277       .  A
O1530     Cu1532   2.002       .  S
Cu1531    Cu1532   2.369       .  S
C1533      C1540   1.483       .  S
C1534      C1552   1.488       .  S
C1535      C1684   1.479       .  S
C1536      C1588   1.480       .  S
C1537      C1538   1.404       .  A
C1537      C1542   1.412       .  A
C1538      C1539   1.397       .  A
C1538      H1543   1.083       .  S
C1539      C1540   1.412       .  A
C1539      O1544   1.372       .  S
C1540      C1541   1.406       .  A
C1541      C1542   1.400       .  A
C1541      H1545   1.083       .  S
C1542      O1546   1.372       .  S
O1544      H1548   0.992       .  S
O1546      H1547   0.992       .  S
C1549      C1550   1.406       .  A
C1549      C1554   1.413       .  A
C1550      C1551   1.399       .  A
C1550      H1555   1.083       .  S
C1551      C1552   1.412       .  A
C1551      O1556   1.372       .  S
C1552      C1553   1.407       .  A
C1553      C1554   1.402       .  A
C1553      H1557   1.083       .  S
C1554      O1558   1.371       .  S
O1556      H1560   0.992       .  S
O1558      H1559   0.992       .  S
C1561      C1566   1.411       .  A
C1562      C1563   1.399       .  A
C1562      H1567   1.083       .  S
C1563      O1568   1.371       .  S
C1564      C1565   1.407       .  A
C1565      C1566   1.400       .  A
C1565      H1569   1.083       .  S
C1566      O1570   1.372       .  S
O1568      H1572   0.992       .  S
O1570      H1571   0.992       .  S
C1573      C1574   1.407       .  A
C1574      C1575   1.400       .  A
C1574      H1579   1.083       .  S
C1575      C1576   1.411       .  A
C1575      O1580   1.371       .  S
C1577      C1578   1.399       .  A
C1577      H1581   1.083       .  S
C1578      O1582   1.372       .  S
O1580      H1584   0.992       .  S
O1582      H1583   0.992       .  S
C1585      C1586   1.403       .  A
C1585      C1590   1.408       .  A
C1586      C1587   1.399       .  A
C1586      H1591   1.084       .  S
C1587      C1588   1.412       .  A
C1587      O1592   1.372       .  S
C1588      C1589   1.405       .  A
C1589      C1590   1.398       .  A
C1589      H1593   1.083       .  S
C1590      O1594   1.372       .  S
O1592      H1596   0.992       .  S
O1594      H1595   0.992       .  S
C1597      C1602   1.412       .  A
C1598      C1599   1.398       .  A
C1598      H1603   1.083       .  S
C1599      O1604   1.372       .  S
C1600      C1601   1.404       .  A
C1601      C1602   1.402       .  A
C1601      H1605   1.084       .  S
C1602      O1606   1.372       .  S
O1604      H1608   0.992       .  S
O1606      H1607   0.992       .  S
C1609      C1610   1.407       .  A
C1609      C1614   1.411       .  A
C1610      C1611   1.401       .  A
C1610      H1615   1.083   1_556  S
C1611      C1612   1.412       .  A
C1611      O1616   1.372   1_556  S
C1612      C1613   1.405       .  A
C1613      C1614   1.395       .  A
C1613      H1617   1.083       .  S
C1614      O1618   1.371       .  S
O1616      H1620   0.992       .  S
O1618      H1619   0.992       .  S
C1621      C1622   1.405       .  A
C1621      C1626   1.411       .  A
C1622      C1623   1.393   1_554  A
C1622      H1627   1.083       .  S
C1623      C1624   1.410       .  A
C1623      O1628   1.372       .  S
C1624      C1625   1.407   1_556  A
C1625      C1626   1.400       .  A
C1625      H1629   1.083       .  S
C1626      O1630   1.372       .  S
O1628      H1632   0.992   1_556  S
O1630      H1631   0.992   1_554  S
C1633      C1634   1.407       .  A
C1634      C1635   1.395       .  A
C1634      H1639   1.083       .  S
C1635      C1636   1.403       .  A
C1635      O1640   1.372       .  S
C1637      C1638   1.400       .  A
C1637      H1641   1.084       .  S
C1638      O1642   1.372       .  S
O1640      H1644   0.992       .  S
O1642      H1643   0.992       .  S
C1645      C1646   1.405   1_554  A
C1646      C1647   1.398       .  A
C1646      H1651   1.083       .  S
C1647      C1648   1.412   1_556  A
C1647      O1652   1.372       .  S
C1649      C1650   1.397       .  A
C1649      H1653   1.083       .  S
C1650      O1654   1.372       .  S
O1652      H1656   0.992       .  S
O1654      H1655   0.992       .  S
C1657      C1658   1.405       .  A
C1658      C1659   1.397       .  A
C1658      H1663   1.083       .  S
C1659      C1660   1.412       .  A
C1659      O1664   1.372       .  S
C1661      C1662   1.398       .  A
C1661      H1665   1.083       .  S
C1662      O1666   1.372       .  S
O1664      H1668   0.992       .  S
O1666      H1667   0.992       .  S
C1670      C1671   1.398       .  A
C1670      H1675   1.084       .  S
C1671      O1676   1.371       .  S
C1673      C1674   1.398       .  A
C1673      H1677   1.084       .  S
C1674      O1678   1.372       .  S
O1676      H1680   0.992       .  S
O1678      H1679   0.992       .  S
C1681      C1682   1.406       .  A
C1681      C1686   1.410       .  A
C1682      C1683   1.399       .  A
C1682      H1687   1.084       .  S
C1683      C1684   1.408       .  A
C1683      O1688   1.372       .  S
C1684      C1685   1.405       .  A
C1685      C1686   1.402       .  A
C1685      H1689   1.084       .  S
C1686      O1690   1.372       .  S
O1688      H1692   0.992       .  S
O1690      H1691   0.992       .  S
C1693      C1694   1.408       .  A
C1693      C1698   1.417       .  A
C1694      C1695   1.399       .  A
C1694      H1699   1.083       .  S
C1695      C1696   1.405       .  A
C1695      O1700   1.373       .  S
C1696      C1697   1.397       .  A
C1697      C1698   1.398       .  A
C1697      H1701   1.084       .  S
C1698      O1702   1.372       .  S
O1700      H1704   0.992       .  S
O1702      H1703   0.992       .  S
C1705      C1706   1.405   1_545  A
C1706      C1707   1.398       .  A
C1706      H1711   1.084       .  S
C1707      C1708   1.407   1_565  A
C1707      O1712   1.372       .  S
C1709      C1710   1.399       .  A
C1709      H1713   1.084       .  S
C1710      O1714   1.372       .  S
O1712      H1716   0.992   1_565  S
O1714      H1715   0.992       .  S
C1717      C1718   1.406   1_565  A
C1718      C1719   1.399       .  A
C1718      H1723   1.083       .  S
C1719      C1720   1.409   1_545  A
C1719      O1724   1.372       .  S
C1721      C1722   1.397       .  A
C1721      H1725   1.084       .  S
C1722      O1726   1.371       .  S
O1724      H1728   0.992       .  S
O1726      H1727   0.992       .  S
C1729      C1730   1.398       .  A
C1730      C1731   1.394       .  A
C1730      H1735   1.084       .  S
C1731      C1732   1.414       .  A
C1731      O1736   1.371       .  S
C1733      C1734   1.404       .  A
C1733      H1737   1.083       .  S
C1734      O1738   1.372       .  S
O1736      H1740   0.992       .  S
O1738      H1739   0.992       .  S
C1741      C1742   1.405       .  A
C1741      C1746   1.413       .  A
C1742      C1743   1.400       .  A
C1742      H1747   1.083       .  S
C1743      C1744   1.412       .  A
C1743      O1748   1.372       .  S
C1744      C1745   1.404       .  A
C1745      C1746   1.399       .  A
C1745      H1749   1.083       .  S
C1746      O1750   1.371       .  S
O1748      H1752   0.992       .  S
O1750      H1751   0.992       .  S
C1753      C1754   1.406       .  A
C1753      C1758   1.412       .  A
C1754      C1755   1.400       .  A
C1754      H1759   1.083       .  S
C1755      C1756   1.412       .  A
C1755      O1760   1.372       .  S
C1756      C1757   1.406       .  A
C1757      C1758   1.401       .  A
C1757      H1761   1.083       .  S
C1758      O1762   1.372       .  S
O1760      H1764   0.992       .  S
O1762      H1763   0.992       .  S
C1765      C1770   1.412       .  A
C1766      C1767   1.400       .  A
C1766      H1771   1.083   1_455  S
C1767      O1772   1.372       .  S
C1768      C1769   1.405       .  A
C1769      C1770   1.402       .  A
C1769      H1773   1.084       .  S
C1770      O1774   1.372       .  S
O1772      H1776   0.992   1_455  S
O1774      H1775   0.992       .  S
C1777      C1778   1.401       .  A
C1778      C1779   1.398       .  A
C1778      H1783   1.084       .  S
C1779      C1780   1.412   1_565  A
C1779      O1784   1.371       .  S
C1781      C1782   1.405       .  A
C1781      H1785   1.083       .  S
C1782      O1786   1.372       .  S
O1784      H1788   0.992       .  S
O1786      H1787   0.992       .  S
C1789      C1790   1.403       .  A
C1789      C1794   1.412       .  A
C1790      C1791   1.399       .  A
C1790      H1795   1.083       .  S
C1791      C1792   1.412       .  A
C1791      O1796   1.372       .  S
C1792      C1793   1.404       .  A
C1793      C1794   1.400       .  A
C1793      H1797   1.083       .  S
C1794      O1798   1.372       .  S
O1796      H1800   0.992       .  S
O1798      H1799   0.992       .  S
C1801      C1802   1.406       .  A
C1801      C1806   1.413       .  A
C1802      C1803   1.402       .  A
C1802      H1807   1.083       .  S
C1803      C1804   1.414       .  A
C1803      O1808   1.372       .  S
C1804      C1805   1.405       .  A
C1805      C1806   1.399       .  A
C1805      H1809   1.083       .  S
C1806      O1810   1.372       .  S
O1808      H1812   0.992       .  S
O1810      H1811   0.992       .  S
C1813      C1814   1.402   1_655  A
C1814      C1815   1.398       .  A
C1814      H1819   1.084       .  S
C1815      C1816   1.412   1_465  A
C1815      O1820   1.372       .  S
C1817      C1818   1.398       .  A
C1817      H1821   1.084       .  S
C1818      O1822   1.372       .  S
O1820      H1824   0.992       .  S
O1822      H1823   0.992       .  S
