geometry optimzed in LAMMPS
_audit_creation_date              2020-11-30 
_audit_creation_method            'lammps2cif' 
_symmetry_space_group_name_H-M    'P1' 
_symmetry_Int_Tables_number       1 
_symmetry_cell_setting            triclinic 
loop_ 
_symmetry_equiv_pos_as_xyz 
  x,y,z 
_cell_length_a                    44.95520457 
_cell_length_b                    44.94678574790305 
_cell_length_c                    95.69386521997879 
_cell_angle_alpha                 89.68654971129332 
_cell_angle_beta                  89.92338883071479 
_cell_angle_gamma                 119.58754018177372 
loop_ 
_atom_site_label 
_atom_site_type_symbol 
_atom_site_fract_x 
_atom_site_fract_y 
_atom_site_fract_z 
_atom_site_charge 
C1          C  0.27308655  0.27167820  0.40381376     0.03400
C2          C  0.27597930  0.27304989  0.41855426     0.03300
C3          C  0.25398010  0.24387297  0.42646221    -0.17200
C4          C  0.22974552  0.21346963  0.42007433     0.03400
C5          C  0.22669201  0.21224333  0.40537058     0.03300
C6          C  0.24830045  0.24153921  0.39744566    -0.17200
H7          H  0.24660974  0.24066460  0.38614348     0.05400
H8          H  0.25549676  0.24478206  0.43776181     0.05400
C9          C  0.01937849  0.28222423  0.60693804     0.03400
C10         C  0.01436179  0.27612935  0.59241366     0.03300
C11         C  0.01507199  0.24792323  0.58668816    -0.17200
C12         C  0.02161867  0.22586872  0.59495324     0.03400
C13         C  0.02807610  0.23269429  0.60939611     0.03300
C14         C  0.02693112  0.26077443  0.61518700    -0.17200
H15         H  0.03030136  0.26477940  0.62635614     0.05400
H16         H  0.01175576  0.24392486  0.57550562     0.05400
In17       In  0.50231472  0.99359854  0.50679111     1.36900
C18         C  0.46178218  0.44552920  0.48720603     0.78700
O19         O  0.01365024  0.03593849  0.49045444    -0.59800
O20         O  0.05279400  0.02498126  0.49660746    -0.50700
C21         C  0.49104696  0.03245933  0.52438654     0.71300
O22         O  0.46849432  0.01233893  0.51597698    -0.45500
C23         C  0.00294086  0.45203093  0.52572989     0.76000
O24         O  0.45359353  0.46501605  0.49357154    -0.57400
O25         O  0.03021926  0.47332937  0.51952573    -0.47500
O26         O  0.49035061  0.44887741  0.49058080    -0.53800
C27         C  0.04419589  0.04263935  0.48905107     0.86200
O28         O  0.01851203  0.03578819  0.52290506    -0.55700
O29         O  0.47535305  0.44634879  0.52180342    -0.59000
C30         C  0.01099489  0.27504544  0.75252655     0.03400
C31         C  0.01286125  0.27320498  0.73781392     0.03300
C32         C  0.01792339  0.24753376  0.73185150    -0.17200
C33         C  0.02174577  0.22372560  0.74020458     0.03400
C34         C  0.02003830  0.22570578  0.75491345     0.03300
C35         C  0.01524352  0.25153886  0.76081952    -0.17200
H36         H  0.51673906  0.25261858  0.77213666     0.05400
H37         H  0.01950005  0.24663065  0.72057585     0.05400
In38       In  0.47717484  0.47529715  0.84084856     1.36900
C39         C  0.47077192  0.42199396  0.82637006     0.78700
O40         O  0.45092912  0.99705162  0.82430785    -0.59800
O41         O  0.99899922  0.03543388  0.83252163    -0.50700
C42         C  0.42126017  0.97393523  0.85735826     0.71300
O43         O  0.45596522  0.49510908  0.85725284    -0.45500
C44         C  0.02726713  0.99636670  0.85785300     0.76000
O45         O  0.45991770  0.41915973  0.83870944    -0.57400
O46         O  0.99714728  0.97376709  0.86090909    -0.47500
O47         O  0.99448027  0.45953349  0.82158972    -0.53800
C48         C  0.97550640  0.02869818  0.82382558     0.86200
O49         O  0.41813168  0.95225651  0.84836196    -0.55700
O50         O  0.03834685  0.51307808  0.84376018    -0.59000
C51         C  0.19214786  0.97393436  0.94484572     0.03400
C52         C  0.19260872  0.97752383  0.93012372     0.03300
C53         C  0.22105175  0.98125047  0.92250799    -0.17200
C54         C  0.24907227  0.98169503  0.92920790     0.03400
C55         C  0.24841104  0.97792625  0.94390483     0.03300
C56         C  0.21976735  0.97360488  0.95150302    -0.17200
H57         H  0.21903481  0.97021155  0.96274753     0.05400
H58         H  0.22143310  0.98405495  0.91126253     0.05400
C59         C  0.27095446  0.28610845  0.26092171     0.03400
C60         C  0.27766905  0.28177217  0.27499756     0.03300
C61         C  0.25316552  0.25331088  0.28261873    -0.17200
C62         C  0.22146262  0.22997107  0.27679831     0.03400
C63         C  0.21388847  0.23589133  0.26301769     0.03300
C64         C  0.23854617  0.26398466  0.25537935    -0.17200
H65         H  0.23248722  0.26820604  0.24485079     0.05400
H66         H  0.25897002  0.24899339  0.29317807     0.05400
C67         C  0.47701499  0.47436180  0.35009109     0.03400
C68         C  0.47093363  0.47194437  0.33551087     0.03300
C69         C  0.49281809  0.49958835  0.32682416    -0.17200
C70         C  0.01820400  0.02570238  0.33084544     0.03400
C71         C  0.02584791  0.02747938  0.34528034     0.03300
C72         C  0.50501729  0.50367392  0.35550392    -0.17200
H73         H  0.50880281  0.50546937  0.36671395     0.05400
H74         H  0.48910840  0.49784186  0.31561624     0.05400
In75       In  0.48859710  0.01813512  0.17772009     1.36900
C76         C  0.03129835  0.05501962  0.19741795     0.78700
O77         O  0.44499957  0.48757437  0.18883076    -0.59800
O78         O  0.46542583  0.45489678  0.18427277    -0.50700
C79         C  0.44948963  0.02982998  0.16036292     0.71300
O80         O  0.46834556  0.05154418  0.16930601    -0.45500
C81         C  0.04246067  0.51355380  0.15949042     0.76000
O82         O  0.01825935  0.06917289  0.19008317    -0.57400
O83         O  0.01854167  0.48467474  0.16346491    -0.47500
O84         O  0.02281869  0.02483428  0.19399266    -0.53800
C85         C  0.44180561  0.45823125  0.18991761     0.86200
O86         O  0.46047813  0.49869149  0.15794870    -0.55700
O87         O  0.03531309  0.05100913  0.16271088    -0.59000
C88         C  0.21614218  0.50508806  0.09033903     0.03400
C89         C  0.21437390  0.50776867  0.07566348     0.03300
C90         C  0.24076623  0.50899090  0.06730926    -0.17200
C91         C  0.26880507  0.50790357  0.07320931     0.03400
C92         C  0.27113924  0.50645460  0.08793109     0.03300
C93         C  0.24460627  0.50486495  0.09626511    -0.17200
H94         H  0.24518939  0.50139851  0.10745339     0.05400
H95         H  0.24010399  0.51148806  0.05607362     0.05400
C96         C  0.02028105  0.01922650  0.01469329     0.03400
C97         C  0.01707924  0.02111405  0.00003120     0.03300
C98         C  0.48804581  0.02657637  0.99434603    -0.17200
C99         C  0.46370965  0.02760980  0.00329998     0.03400
C100        C  0.46898987  0.02895312  0.01791248     0.03300
C101        C  0.49783415  0.02841449  0.02314942    -0.17200
H102        H  0.50199814  0.03036588  0.03433445     0.05400
H103        H  0.48493440  0.02697297  0.98312585     0.05400
C104        C  0.02296360  0.47819256  0.66806933     0.03400
C105        C  0.02538548  0.48340083  0.68272715     0.03300
C106        C  0.02841083  0.00763548  0.68752616    -0.17200
C107        C  0.02291723  0.03024854  0.67911604     0.03400
C108        C  0.02234180  0.02679891  0.66440167     0.03300
C109        C  0.02627544  0.00047998  0.65851256    -0.17200
H110        H  0.02664901  0.99872805  0.64723238     0.05400
H111        H  0.02814028  0.00949580  0.69880721     0.05400
C112        C  0.33809781  0.01244203  0.05647364     0.19800
C113        C  0.36989331  0.04196476  0.05428845    -0.18300
C114        C  0.39412993  0.04149016  0.04521414    -0.10600
C115        C  0.38717909  0.01119639  0.03827142     0.22000
C116        C  0.35554117  0.98162383  0.04058409    -0.19900
C117        C  0.33137114  0.98208869  0.04965417    -0.10800
C118        C  0.42424730  0.51700497  0.02694844    -0.14900
C119        C  0.44544367  0.03152505  0.02814730    -0.28800
C120        C  0.31283553  0.01389717  0.06611649    -0.03000
C121        C  0.29373006  0.50639300  0.06343039    -0.39600
H122        H  0.37577163  0.06563824  0.05944039     0.13200
H123        H  0.41786589  0.06504533  0.04345687     0.12800
H124        H  0.34956116  0.95795055  0.03540548     0.12200
H125        H  0.30766036  0.95849926  0.05140430     0.12500
H126        H  0.41327653  0.49696301  0.01914769     0.15200
H127        H  0.45684242  0.05005133  0.03646870     0.14000
H128        H  0.32230116  0.03399074  0.07390398     0.11700
H129        H  0.28328090  0.49082971  0.05417409     0.13700
C130        C  0.14493730  0.50348718  0.05023704     0.19800
C131        C  0.13068669  0.99705231  0.03617799    -0.18300
C132        C  0.11608517  0.50858938  0.02959630    -0.10600
C133        C  0.08980461  0.50746707  0.03797223     0.22000
C134        C  0.09102514  0.50363119  0.05248629    -0.19900
C135        C  0.11836119  0.50184970  0.05859173    -0.10800
C136        C  0.06000231  0.50857678  0.03187959    -0.14900
C137        C  0.05012520  0.01807293  0.02084914    -0.28800
C138        C  0.17388011  0.50059605  0.05626725    -0.03000
C139        C  0.18575524  0.51097988  0.06928036    -0.39600
H140        H  0.15159641  0.99988405  0.02961558     0.13200
H141        H  0.10529440  0.00568291  0.01907672     0.12800
H142        H  0.07075863  0.50206722  0.05912856     0.12200
H143        H  0.11809878  0.49832879  0.06979478     0.12500
H144        H  0.03594388  0.49517258  0.03754535     0.15200
H145        H  0.07442256  0.03177284  0.01539579     0.14000
H146        H  0.17152422  0.97689447  0.04971256     0.11700
H147        H  0.17400710  0.52233367  0.07562387     0.13700
C148        C  0.39250341  0.51571769  0.13073660     0.19800
C149        C  0.36263188  0.98776563  0.12302463    -0.18300
C150        C  0.34955884  0.49255726  0.11231823    -0.10600
C151        C  0.34179798  0.51898780  0.11427470     0.22000
C152        C  0.35993424  0.54387733  0.12439836    -0.19900
C153        C  0.38503643  0.54244096  0.13249861    -0.10800
C154        C  0.31391676  0.52076299  0.10663402    -0.14900
C155        C  0.29937695  0.50369567  0.09479907    -0.28800
C156        C  0.41753552  0.51162158  0.13961700    -0.03000
C157        C  0.42636426  0.03535113  0.15112217    -0.39600
H158        H  0.36893259  0.96757630  0.12171597     0.13200
H159        H  0.32390518  0.96671361  0.10742940     0.12800
H160        H  0.35443731  0.56447517  0.12615465     0.12200
H161        H  0.39795075  0.56220616  0.14016789     0.12500
H162        H  0.30537739  0.53772670  0.11083154     0.15200
H163        H  0.29651198  0.98062085  0.09176285     0.14000
H164        H  0.40694576  0.98768989  0.14143941     0.11700
H165        H  0.43275322  0.55435663  0.15293897     0.13700
C166        C  0.10542029  0.49741747  0.13792108     0.19800
C167        C  0.10176836  0.47168798  0.12870859    -0.18300
C168        C  0.12923427  0.47607922  0.12037299    -0.10600
C169        C  0.14751789  0.00373026  0.12043791     0.22000
C170        C  0.15308624  0.03217977  0.12835052    -0.19900
C171        C  0.12676693  0.03143210  0.13642291    -0.10800
C172        C  0.17619971  0.00573137  0.11197237    -0.14900
C173        C  0.18675196  0.49910681  0.09940847    -0.28800
C174        C  0.07545744  0.49221378  0.14636497     0.00900
C175        C  0.07156438  0.51838630  0.15079793    -0.39600
H176        H  0.07745223  0.44830253  0.12782654     0.13200
H177        H  0.12554479  0.45563807  0.11341932     0.12800
H178        H  0.17790686  0.05516765  0.12824453     0.12200
H179        H  0.13240565  0.05372994  0.14255188     0.12500
H180        H  0.20210673  0.02438176  0.11498516     0.15200
H181        H  0.16124427  0.48450977  0.09508253     0.14000
H182        H  0.05552130  0.46614245  0.14858445     0.11700
H183        H  0.08298734  0.05262609  0.14646562     0.13700
C184        C  0.33040440  0.33462417  0.22987189     0.19800
C185        C  0.32511601  0.34045542  0.21592662    -0.18300
C186        C  0.35246981  0.36392772  0.20769095    -0.10600
C187        C  0.38573327  0.38117120  0.21318249     0.22000
C188        C  0.39124244  0.37443355  0.22696917    -0.19900
C189        C  0.36374440  0.35163955  0.23532474    -0.10800
C190        C  0.41487828  0.40656976  0.20471949    -0.14900
C191        C  0.41233320  0.43043688  0.19719398    -0.28800
C192        C  0.30119191  0.30915781  0.23829217    -0.03000
C193        C  0.29771580  0.31355979  0.25197745    -0.39600
H194        H  0.29971068  0.32713181  0.21146946     0.13200
H195        H  0.34774177  0.36833792  0.19699060     0.12800
H196        H  0.41675078  0.38730699  0.23134185     0.12200
H197        H  0.36864701  0.34681254  0.24593913     0.12500
H198        H  0.43955065  0.40782900  0.20575253     0.15200
H199        H  0.38867812  0.43144931  0.19740423     0.14000
H200        H  0.28259803  0.28603402  0.23306183     0.11700
H201        H  0.31629475  0.33728706  0.25683361     0.13700
C202        C  0.09022738  0.12139066  0.22431595     0.19800
C203        C  0.08985722  0.14816718  0.23162417    -0.18300
C204        C  0.11488264  0.16665247  0.24159597    -0.10600
C205        C  0.14119810  0.15903690  0.24427253     0.22000
C206        C  0.14098944  0.13162930  0.23728359    -0.19900
C207        C  0.11599759  0.11315528  0.22731948    -0.10800
C208        C  0.17002345  0.18000515  0.25377488    -0.14900
C209        C  0.18146403  0.21348895  0.25571458    -0.28800
C210        C  0.06455170  0.10376413  0.21316383    -0.03000
C211        C  0.05512246  0.07183705  0.20902191    -0.39600
H212        H  0.07023005  0.15491607  0.22955413     0.13200
H213        H  0.11364353  0.18696771  0.24710825     0.12800
H214        H  0.16099641  0.12530518  0.23915513     0.12200
H215        H  0.11779449  0.09332779  0.22167289     0.12500
H216        H  0.18439491  0.16860637  0.25817222     0.15200
H217        H  0.16973924  0.22605757  0.25008365     0.14000
H218        H  0.05283111  0.11735812  0.20831321     0.11700
H219        H  0.06507828  0.05713436  0.21425456     0.13700
C220        C  0.09594864  0.09827990  0.31124308     0.19800
C221        C  0.12899283  0.10440955  0.30810002    -0.18300
C222        C  0.15135490  0.13267234  0.29997298    -0.10600
C223        C  0.14139902  0.15605578  0.29504554     0.22000
C224        C  0.10822518  0.14975875  0.29812934    -0.19900
C225        C  0.08575527  0.12130487  0.30617404    -0.10800
C226        C  0.16438622  0.18675718  0.28645927    -0.14900
C227        C  0.19843572  0.19950936  0.28542990    -0.28800
C228        C  0.07369055  0.06881932  0.32047160    -0.03000
C229        C  0.03931877  0.05393997  0.32087256    -0.39600
H230        H  0.13749817  0.08709946  0.31188903     0.13200
H231        H  0.17615199  0.13566121  0.29752005     0.12800
H232        H  0.09977688  0.16719283  0.29444730     0.12200
H233        H  0.06081323  0.11797061  0.30867112     0.12500
H234        H  0.15292204  0.19995213  0.28110020     0.15200
H235        H  0.21081799  0.18893482  0.29187049     0.14000
H236        H  0.08613412  0.05865005  0.32716289     0.11700
H237        H  0.02604010  0.06114435  0.31328670     0.13700
C238        C  0.39784796  0.40690289  0.31205313     0.19800
C239        C  0.39161105  0.40495753  0.29765161    -0.18300
C240        C  0.36441875  0.37568892  0.29189355    -0.10600
C241        C  0.34257491  0.34785576  0.30049681     0.22000
C242        C  0.34847826  0.34997950  0.31493987    -0.19900
C243        C  0.37600408  0.37911190  0.32068540    -0.10800
C244        C  0.31171168  0.31791590  0.29480087    -0.14900
C245        C  0.31038090  0.30676872  0.28167630    -0.28800
C246        C  0.42605218  0.43901164  0.31780842    -0.03000
C247        C  0.44356620  0.43970054  0.32929596    -0.39600
H248        H  0.40772693  0.42627353  0.29084345     0.13200
H249        H  0.35984547  0.37548049  0.28078300     0.12800
H250        H  0.33153798  0.32918157  0.32179833     0.12200
H251        H  0.37939119  0.38024411  0.33190467     0.12500
H252        H  0.28903689  0.30594161  0.30139484     0.15200
H253        H  0.33344675  0.31831617  0.27533389     0.14000
H254        H  0.43251832  0.46265198  0.31231621     0.11700
H255        H  0.43725686  0.41580406  0.33452568     0.13700
C256        C  0.34211763  0.51765168  0.96731384     0.19800
C257        C  0.36376481  0.54415877  0.97625684    -0.18300
C258        C  0.39262061  0.54479037  0.98206873    -0.10600
C259        C  0.40005719  0.51840987  0.97924334     0.22000
C260        C  0.37812782  0.49172015  0.97041443    -0.19900
C261        C  0.34938501  0.49116883  0.96457677    -0.10800
C262        C  0.43037392  0.51771561  0.98510004    -0.14900
C263        C  0.43365058  0.02857012  0.99729980    -0.28800
C264        C  0.31230506  0.51840117  0.96099008    -0.03000
C265        C  0.27713786  0.97714136  0.95123878    -0.39600
H266        H  0.35872316  0.56485150  0.97852274     0.13200
H267        H  0.40916216  0.56629713  0.98852899     0.12800
H268        H  0.38309831  0.47100009  0.96810162     0.12200
H269        H  0.33274916  0.46975547  0.95806835     0.12500
H270        H  0.42447299  0.99183232  0.98204250     0.15200
H271        H  0.43989434  0.55168830  0.00177980     0.14000
H272        H  0.30216379  0.53280285  0.96630992     0.11700
H273        H  0.28970425  0.96519661  0.94584238     0.13700
C274        C  0.14505264  0.51644975  0.96050818     0.19800
C275        C  0.12340263  0.02335458  0.96305831    -0.18300
C276        C  0.09980064  0.02515566  0.97205594    -0.10600
C277        C  0.09394481  0.51315338  0.97873479     0.22000
C278        C  0.09678647  0.48394177  0.97617967    -0.19900
C279        C  0.12190092  0.48544619  0.96710034    -0.10800
C280        C  0.06759572  0.51065226  0.98882100    -0.14900
C281        C  0.04208605  0.02095200  0.98985745    -0.28800
C282        C  0.15170959  0.99310286  0.95262168    -0.03000
C283        C  0.16379827  0.97110853  0.95380709    -0.39600
H284        H  0.14033795  0.04571551  0.95689684     0.13200
H285        H  0.09974149  0.04912533  0.97268533     0.12800
H286        H  0.07939882  0.45980533  0.98118881     0.12200
H287        H  0.12286494  0.46223815  0.96517613     0.12500
H288        H  0.05689105  0.48920218  0.99611245     0.15200
H289        H  0.04968182  0.03891933  0.98119260     0.14000
H290        H  0.16296091  0.01326515  0.94476204     0.11700
H291        H  0.17938881  0.48100554  0.96072463     0.13700
C292        C  0.32129943  0.49336971  0.89830660     0.19800
C293        C  0.31442720  0.46377042  0.89097174    -0.18300
C294        C  0.33988144  0.46265603  0.88298623    -0.10600
C295        C  0.37282553  0.49151967  0.88199753     0.22000
C296        C  0.37038217  0.00714837  0.89575912    -0.19900
C297        C  0.35407395  0.52226102  0.89731713    -0.10800
C298        C  0.39423136  0.99322545  0.87489633    -0.14900
C299        C  0.39187882  0.96973072  0.86566702    -0.28800
C300        C  0.29348306  0.49330481  0.90664795    -0.03000
C301        C  0.28005782  0.98844249  0.92101159    -0.39600
H302        H  0.28931751  0.44122251  0.89155894     0.13200
H303        H  0.33332776  0.43900799  0.87775350     0.12800
H304        H  0.39627244  0.02346712  0.89938621     0.12200
H305        H  0.34906639  0.01807024  0.91351035     0.12500
H306        H  0.41904067  0.01560012  0.87677083     0.15200
H307        H  0.37320961  0.44339161  0.86404822     0.14000
H308        H  0.26728826  0.47492759  0.90388107     0.11700
H309        H  0.30442217  0.00230782  0.92623180     0.13700
C310        C  0.13731228  0.99344430  0.90328597     0.19800
C311        C  0.14390619  0.00817266  0.88987055    -0.18300
C312        C  0.11740883  0.00638834  0.88165055    -0.10600
C313        C  0.08359169  0.99007060  0.88676954     0.22000
C314        C  0.07710884  0.97592518  0.90028410    -0.19900
C315        C  0.10361362  0.97775320  0.90851197    -0.10800
C316        C  0.05414245  0.98553609  0.87816769    -0.14900
C317        C  0.05711130  0.00380159  0.86655443    -0.28800
C318        C  0.16634512  0.99520087  0.91137535    -0.03000
C319        C  0.16273776  0.97530071  0.92254946    -0.39600
H320        H  0.17964209  0.56201072  0.89101068     0.13200
H321        H  0.13044957  0.55311292  0.87711310     0.12800
H322        H  0.05134274  0.96329897  0.90450037     0.12200
H323        H  0.09739922  0.96700846  0.91893712     0.12500
H324        H  0.02876917  0.96604243  0.88154015     0.15200
H325        H  0.08178330  0.02427040  0.86309710     0.14000
H326        H  0.20947762  0.53754914  0.90492902     0.11700
H327        H  0.13755288  0.95713430  0.92648884     0.13700
C328        C  0.00138732  0.11217194  0.80357607     0.19800
C329        C  0.03218059  0.13753370  0.79765954    -0.18300
C330        C  0.03234266  0.16170329  0.78833417    -0.10600
C331        C  0.50354633  0.15967523  0.78458950     0.22000
C332        C  0.47314632  0.13628267  0.79136775    -0.19900
C333        C  0.47257422  0.11180467  0.80055725    -0.10800
C334        C  0.50278673  0.18541745  0.77508793    -0.14900
C335        C  0.02256741  0.20079673  0.76444061    -0.28800
C336        C  0.00181731  0.08627517  0.81312082    -0.03000
C337        C  0.97525407  0.05428377  0.81424393    -0.39600
H338        H  0.05608328  0.13832499  0.80010528     0.13200
H339        H  0.05650811  0.18099264  0.78397145     0.12800
H340        H  0.44967322  0.13686677  0.78950283     0.12200
H341        H  0.44871940  0.09443183  0.80571881     0.12500
H342        H  0.48204736  0.19100781  0.77651826     0.15200
H343        H  0.04181654  0.19350272  0.76241058     0.14000
H344        H  0.02509094  0.09326911  0.81893621     0.11700
H345        H  0.45248564  0.04560951  0.80829127     0.13700
C346        C  0.98771670  0.37500724  0.79703533     0.19800
C347        C  0.99494228  0.38066258  0.78267580    -0.18300
C348        C  0.99481017  0.35531374  0.77423361    -0.10600
C349        C  0.48316048  0.31916075  0.78001136     0.22000
C350        C  0.46444276  0.30965987  0.79258085    -0.19900
C351        C  0.46171530  0.33394441  0.80074186    -0.10800
C352        C  0.48766519  0.29288484  0.77234596    -0.14900
C353        C  0.00579028  0.30184786  0.75942545    -0.28800
C354        C  0.98953400  0.40349194  0.80554669    -0.03000
C355        C  0.46765010  0.39258843  0.81843588    -0.39600
H356        H  0.00077276  0.40490428  0.77793967     0.13200
H357        H  0.00008047  0.36077865  0.76321441     0.12800
H358        H  0.45220792  0.28335321  0.79621210     0.12200
H359        H  0.44699235  0.32534407  0.81030212     0.12500
H360        H  0.47926376  0.26867859  0.77770954     0.15200
H361        H  0.01724234  0.32683706  0.75456089     0.14000
H362        H  0.00125209  0.42867031  0.80066015     0.11700
H363        H  0.45785994  0.36842811  0.82395126     0.13700
C364        C  0.51753746  0.09324365  0.70488473     0.19800
C365        C  0.52859042  0.10377071  0.71858847    -0.18300
C366        C  0.52618981  0.13085245  0.72452354    -0.10600
C367        C  0.01902108  0.15472556  0.71511447     0.22000
C368        C  0.99430472  0.13159646  0.70587658    -0.19900
C369        C  0.99763376  0.10492451  0.70001851    -0.10800
C370        C  0.01406145  0.18227600  0.72133670    -0.14900
C371        C  0.02791411  0.19722202  0.73361258    -0.28800
C372        C  0.52226047  0.06536161  0.69887798    -0.03000
C373        C  0.01507039  0.05555046  0.68566956    -0.39600
H374        H  0.53903410  0.09085814  0.72477533     0.13200
H375        H  0.53414662  0.13734483  0.73525102     0.12800
H376        H  0.97197493  0.13380276  0.70337098     0.12200
H377        H  0.97738684  0.08716972  0.69331026     0.12500
H378        H  0.99661703  0.18879329  0.71608610     0.15200
H379        H  0.54685482  0.19074928  0.73841794     0.14000
H380        H  0.54067177  0.05986993  0.70392264     0.11700
H381        H  0.99729186  0.06118148  0.68023449     0.13700
C382        C  0.51460504  0.39898941  0.70147269     0.19800
C383        C  0.48762837  0.36523598  0.70279043    -0.18300
C384        C  0.49074495  0.34162046  0.71136197    -0.10600
C385        C  0.02482773  0.35381938  0.71783058     0.22000
C386        C  0.04773235  0.38904544  0.71910435    -0.19900
C387        C  0.04445819  0.41295360  0.71075929    -0.10800
C388        C  0.02933566  0.32962012  0.72717445    -0.14900
C389        C  0.00703999  0.29585231  0.72824101    -0.28800
C390        C  0.51049408  0.42286196  0.69189893    -0.03000
C391        C  0.03031595  0.46060204  0.69271387    -0.39600
H392        H  0.46389326  0.35715374  0.69723741     0.13200
H393        H  0.46894184  0.31619884  0.71232324     0.12800
H394        H  0.06831441  0.39818918  0.72663695     0.12200
H395        H  0.06303960  0.43966782  0.71203972     0.12500
H396        H  0.05194695  0.34020505  0.73375025     0.15200
H397        H  0.48533470  0.28067341  0.72045559     0.14000
H398        H  0.49070134  0.41171489  0.68398653     0.11700
H399        H  0.04693446  0.47270607  0.70154544     0.13700
C400        C  0.02763668  0.40296023  0.55216293     0.19800
C401        C  0.50098899  0.36806851  0.55501572    -0.18300
C402        C  0.50247998  0.34622937  0.56508618    -0.10600
C403        C  0.02783251  0.35673620  0.57228107     0.22000
C404        C  0.05673810  0.38908075  0.57029837    -0.19900
C405        C  0.05675164  0.41179431  0.56026701    -0.10800
C406        C  0.02953418  0.33318235  0.58279760    -0.14900
C407        C  0.00923173  0.29897253  0.58262465    -0.28800
C408        C  0.52996874  0.42353295  0.54106954    -0.03000
C409        C  0.00125210  0.42789144  0.53658279    -0.39600
H410        H  0.47729962  0.35931698  0.54940002     0.13200
H411        H  0.47956596  0.32213381  0.56717979     0.12800
H412        H  0.07964466  0.39661708  0.57638469     0.12200
H413        H  0.07960371  0.43640727  0.55884488     0.12500
H414        H  0.04993132  0.34424318  0.59046241     0.15200
H415        H  0.49768434  0.28619851  0.57424993     0.14000
H416        H  0.55459659  0.44337092  0.53715555     0.11700
H417        H  0.97619401  0.41040325  0.54087632     0.13700
C418        C  0.00588347  0.10317061  0.55169972     0.19800
C419        C  0.53161684  0.11636465  0.56290474    -0.18300
C420        C  0.53090354  0.14085116  0.57166490    -0.10600
C421        C  0.00345982  0.15181440  0.56964450     0.22000
C422        C  0.97631156  0.13225335  0.56056862    -0.19900
C423        C  0.97741676  0.10828263  0.55169361    -0.10800
C424        C  0.00180611  0.17886629  0.57791037    -0.14900
C425        C  0.02381708  0.19741026  0.58806428    -0.28800
C426        C  0.50893504  0.07461272  0.54338902    -0.03000
C427        C  0.48484082  0.05397714  0.53424159    -0.39600
H428        H  0.55321567  0.11198020  0.56352143     0.13200
H429        H  0.55223473  0.15475791  0.57861324     0.12800
H430        H  0.95427931  0.13596750  0.56014169     0.12200
H431        H  0.95610489  0.09457704  0.54473570     0.12500
H432        H  0.98116943  0.18398285  0.57540780     0.15200
H433        H  0.54233932  0.18616456  0.59345630     0.14000
H434        H  0.53303082  0.07442842  0.54360791     0.11700
H435        H  0.95979906  0.05605381  0.53288704     0.13700
C436        C  0.51820399  0.15039095  0.63078995     0.19800
C437        C  0.49112290  0.11668328  0.63219938    -0.18300
C438        C  0.49386230  0.09334444  0.64107440    -0.10600
C439        C  0.02994276  0.10757656  0.64639228     0.22000
C440        C  0.05642520  0.14148910  0.64480723    -0.19900
C441        C  0.05246804  0.16433656  0.63605631    -0.10800
C442        C  0.03498776  0.08415006  0.65585048    -0.14900
C443        C  0.01734129  0.04984759  0.65469924    -0.28800
C444        C  0.51428563  0.17374878  0.62079745    -0.03000
C445        C  0.03542663  0.21096678  0.61895345    -0.39600
H446        H  0.46765707  0.10833496  0.62640771     0.13200
H447        H  0.47217278  0.06780766  0.64205348     0.12800
H448        H  0.08045512  0.15020803  0.65021324     0.12200
H449        H  0.07390511  0.18990227  0.63481354     0.12500
H450        H  0.05456285  0.09553558  0.66383573     0.15200
H451        H  0.49537762  0.03401593  0.64724163     0.14000
H452        H  0.49267411  0.16236843  0.61370254     0.11700
H453        H  0.05522741  0.22394706  0.62669645     0.13700
C454        C  0.02548833  0.35413232  0.63117274     0.19800
C455        C  0.03675837  0.36429047  0.64489620    -0.18300
C456        C  0.03254860  0.38981921  0.65135798    -0.10600
C457        C  0.52176685  0.40627521  0.64368817     0.22000
C458        C  0.49702972  0.38275806  0.63457828    -0.19900
C459        C  0.50105236  0.35676519  0.62851378    -0.10800
C460        C  0.51588416  0.43313114  0.64996270    -0.14900
C461        C  0.02956519  0.45194581  0.66161100    -0.28800
C462        C  0.03093442  0.32710650  0.62472272    -0.03000
C463        C  0.01342905  0.30874326  0.61355553    -0.39600
H464        H  0.04856243  0.35213532  0.65071528     0.13200
H465        H  0.04070812  0.39604068  0.66207948     0.12800
H466        H  0.47412368  0.38412887  0.63231779     0.12200
H467        H  0.48066245  0.33857970  0.62197323     0.12500
H468        H  0.49661163  0.43765025  0.64512233     0.15200
H469        H  0.04900327  0.44769655  0.66639050     0.14000
H470        H  0.05003167  0.32213511  0.62943134     0.11700
H471        H  0.50239491  0.31587591  0.60807047     0.13700
C472        C  0.12247189  0.10328888  0.46709151     0.19800
C473        C  0.14481967  0.09882667  0.45826347    -0.18300
C474        C  0.16721752  0.12533069  0.44939132    -0.10600
C475        C  0.16780583  0.15698829  0.44931127     0.22000
C476        C  0.14589970  0.16153937  0.45840308    -0.19900
C477        C  0.12342843  0.13501692  0.46718439    -0.10800
C478        C  0.19133233  0.18626212  0.44028701    -0.14900
C479        C  0.20743923  0.18337274  0.42896659    -0.28800
C480        C  0.09897109  0.07494648  0.47640347    -0.03000
C481        C  0.06761317  0.06969499  0.47945292    -0.39600
H482        H  0.14477897  0.07470287  0.45817414     0.13200
H483        H  0.18431059  0.12094427  0.44288223     0.12800
H484        H  0.14614200  0.18575293  0.45871296     0.12200
H485        H  0.10723448  0.13959409  0.47420572     0.12500
H486        H  0.19438545  0.21123119  0.44270551     0.15200
H487        H  0.20321297  0.15853850  0.42577445     0.14000
H488        H  0.10712477  0.05746585  0.48043118     0.11700
H489        H  0.05844301  0.08559037  0.47464385     0.13700
C490        C  0.34168079  0.33399448  0.44562973     0.19800
C491        C  0.36266943  0.32939956  0.45520985    -0.18300
C492        C  0.38504606  0.35609177  0.46376150    -0.10600
C493        C  0.38708153  0.38828205  0.46295183     0.22000
C494        C  0.36575414  0.39292004  0.45353199    -0.19900
C495        C  0.34334682  0.36610350  0.44486557    -0.10800
C496        C  0.41013305  0.41660277  0.47232302    -0.14900
C497        C  0.43983897  0.41981799  0.47691563    -0.28800
C498        C  0.31727320  0.30382859  0.43739295    -0.03000
C499        C  0.30053638  0.30496148  0.42592275    -0.39600
H500        H  0.36152677  0.30482879  0.45620174     0.13200
H501        H  0.40007142  0.35109052  0.47125626     0.12800
H502        H  0.36645426  0.41732791  0.45288433     0.12200
H503        H  0.32695601  0.37045733  0.43789270     0.12500
H504        H  0.40265757  0.43521521  0.47542374     0.15200
H505        H  0.44854579  0.40268265  0.47312717     0.14000
H506        H  0.31360541  0.27912802  0.44080208     0.11700
H507        H  0.30569850  0.32934841  0.42152688     0.13700
C508        C  0.10155234  0.09110952  0.36809361     0.19800
C509        C  0.12708028  0.08878630  0.37562754    -0.18300
C510        C  0.15398087  0.11779324  0.38168973    -0.10600
C511        C  0.15561924  0.14980516  0.38050814     0.22000
C512        C  0.13024739  0.15218905  0.37288977    -0.19900
C513        C  0.10332813  0.12318138  0.36683822    -0.10800
C514        C  0.18325569  0.18121789  0.38703145    -0.14900
C515        C  0.20083822  0.18057103  0.39828478    -0.28800
C516        C  0.07325251  0.05943648  0.36200667    -0.03000
C517        C  0.05353227  0.05946883  0.35145433    -0.39600
H518        H  0.12637287  0.06443746  0.37673121     0.13200
H519        H  0.17355182  0.11498542  0.38710611     0.12800
H520        H  0.13089380  0.17651829  0.37183864     0.12200
H521        H  0.08374492  0.12605443  0.36147563     0.12500
H522        H  0.18752343  0.20571328  0.38305088     0.15200
H523        H  0.19457079  0.15617563  0.40294586     0.14000
H524        H  0.06961371  0.03511199  0.36592017     0.11700
H525        H  0.05866047  0.08345897  0.34666594     0.13700
C526        C  0.35247636  0.34680403  0.38639326     0.19800
C527        C  0.38701318  0.35566029  0.38537571    -0.18300
C528        C  0.40962269  0.38296920  0.37688891    -0.10600
C529        C  0.39817859  0.40240122  0.36936505     0.22000
C530        C  0.36362806  0.39350857  0.37039143    -0.19900
C531        C  0.34103070  0.36619559  0.37886339    -0.10800
C532        C  0.42087568  0.43107768  0.35989689    -0.14900
C533        C  0.45526172  0.44670538  0.36012767    -0.28800
C534        C  0.32953153  0.31796747  0.39572458    -0.03000
C535        C  0.29525976  0.30091327  0.39455610    -0.39600
H536        H  0.39648088  0.34114651  0.39106327     0.13200
H537        H  0.43575108  0.38819065  0.37611273     0.12800
H538        H  0.35409500  0.40793250  0.36468109     0.12200
H539        H  0.31486215  0.36088486  0.37964157     0.12500
H540        H  0.40872522  0.43998154  0.35244098     0.15200
H541        H  0.46822256  0.44094194  0.36835901     0.14000
H542        H  0.34134653  0.30963025  0.40357634     0.11700
H543        H  0.28307134  0.30617689  0.38585578     0.13700
C544        C  0.28176163  0.76927674  0.40401655     0.03400
C545        C  0.28438328  0.76933394  0.41876732     0.03300
C546        C  0.26226563  0.73952670  0.42631326    -0.17200
C547        C  0.23763873  0.70981234  0.41961370     0.03400
C548        C  0.23471478  0.70985982  0.40489605     0.03300
C549        C  0.25674481  0.73972515  0.39731642    -0.17200
H550        H  0.25505076  0.73979765  0.38602068     0.05400
H551        H  0.26375626  0.73954673  0.43761034     0.05400
C552        C  0.03045725  0.78719966  0.60362764     0.03400
C553        C  0.02470772  0.78053641  0.58916454     0.03300
C554        C  0.02315605  0.75111221  0.58362522    -0.17200
C555        C  0.02801713  0.72824784  0.59204856     0.03400
C556        C  0.03477544  0.73525421  0.60644196     0.03300
C557        C  0.03601117  0.76461870  0.61203817    -0.17200
H558        H  0.03954981  0.76869590  0.62319338     0.05400
H559        H  0.01930632  0.74667720  0.57247908     0.05400
In560      In  0.50178690  0.48918113  0.50649281     1.36900
C561        C  0.46341418  0.94561458  0.48860006     0.78700
O562        O  0.01979090  0.53754660  0.49118330    -0.59800
O563        O  0.05620817  0.52223374  0.49651964    -0.50700
C564        C  0.49217972  0.52801750  0.52460370     0.71300
O565        O  0.46934497  0.50887150  0.51608176    -0.45500
C566        C  0.00578748  0.95574293  0.52570079     0.76000
O567        O  0.45355171  0.96439576  0.49446912    -0.57400
O568        O  0.03149914  0.97748237  0.51881689    -0.47500
O569        O  0.49301293  0.95180368  0.49191187    -0.53800
C570        C  0.04957167  0.54220756  0.48952216     0.86200
O571        O  0.01948536  0.53214044  0.52344637    -0.55700
O572        O  0.47949596  0.95379792  0.52338468    -0.59000
C573        C  0.00443093  0.77415320  0.75500763     0.03400
C574        C  0.01030189  0.77610644  0.74044379     0.03300
C575        C  0.01900265  0.75328494  0.73406795    -0.17200
C576        C  0.02174346  0.72817129  0.74192794     0.03400
C577        C  0.01582670  0.72630584  0.75652102     0.03300
C578        C  0.00739157  0.74928659  0.76283911    -0.17200
H579        H  0.50872003  0.74704822  0.77512120     0.05400
H580        H  0.02360883  0.75518119  0.72290014     0.05400
In581      In  0.47294590  0.98052213  0.84167704     1.36900
C582        C  0.46812597  0.92785341  0.82712121     0.78700
O583        O  0.45363771  0.49116161  0.82390567    -0.59800
O584        O  0.00219669  0.53514216  0.83150996    -0.50700
C585        C  0.42628791  0.46950094  0.85682387     0.71300
O586        O  0.45108120  0.99909223  0.85848229    -0.45500
C587        C  0.03705897  0.49999711  0.85556703     0.76000
O588        O  0.45267487  0.92421182  0.83851182    -0.57400
O589        O  0.00742575  0.47785880  0.85945909    -0.47500
O590        O  0.98821795  0.95976692  0.82332531    -0.53800
C591        C  0.98012451  0.52619344  0.82197576     0.86200
O592        O  0.42285002  0.44648821  0.84844434    -0.55700
O593        O  0.03011144  0.01193574  0.84653042    -0.59000
C594        C  0.21516356  0.50339857  0.94296260     0.03400
C595        C  0.21447528  0.50607877  0.92821980     0.03300
C596        C  0.24242096  0.50945164  0.92036780    -0.17200
C597        C  0.27055799  0.50967257  0.92681564     0.03400
C598        C  0.27126638  0.50704334  0.94150944     0.03300
C599        C  0.24339498  0.50375440  0.94939583    -0.17200
H600        H  0.24320746  0.50065851  0.96064196     0.05400
H601        H  0.24193353  0.51087520  0.90907323     0.05400
C602        C  0.27503759  0.77184750  0.25784806     0.03400
C603        C  0.28134529  0.76979856  0.27219299     0.03300
C604        C  0.25549537  0.74401657  0.28047147    -0.17200
C605        C  0.22332110  0.72086939  0.27489714     0.03400
C606        C  0.21675847  0.72392511  0.26062672     0.03300
C607        C  0.24263260  0.74937249  0.25237019    -0.17200
H608        H  0.23781740  0.75065202  0.24134258     0.05400
H609        H  0.26056165  0.74176966  0.29138904     0.05400
C610        C  0.47933219  0.97048700  0.34769068     0.03400
C611        C  0.47023040  0.96918159  0.33343854     0.03300
C612        C  0.48953634  0.99837979  0.32498696    -0.17200
C613        C  0.01838367  0.52755116  0.33186277     0.03400
C614        C  0.02685469  0.52912953  0.34621697     0.03300
C615        C  0.50734882  0.99994823  0.35303501    -0.17200
H616        H  0.51307745  0.00060411  0.36406223     0.05400
H617        H  0.48258946  0.99841521  0.31416272     0.05400
In618      In  0.49375602  0.50971161  0.17671677     1.36900
C619        C  0.03001092  0.53811322  0.19842929     0.78700
O620        O  0.44597727  0.00130178  0.19303990    -0.59800
O621        O  0.45727946  0.96373929  0.18507961    -0.50700
C622        C  0.45699932  0.52472262  0.15945774     0.71300
O623        O  0.47311029  0.54362004  0.16965055    -0.45500
C624        C  0.03654121  0.02467798  0.15914504     0.76000
O625        O  0.01786732  0.55240648  0.19071171    -0.57400
O626        O  0.01315267  0.99687628  0.16429431    -0.47500
O627        O  0.02229696  0.50822279  0.19490772    -0.53800
C628        C  0.43874347  0.97041976  0.19296638     0.86200
O629        O  0.45146981  0.00279736  0.16013759    -0.55700
O630        O  0.04017005  0.53881025  0.16374126    -0.59000
C631        C  0.20032659  0.99202304  0.09119650     0.03400
C632        C  0.19813300  0.99253473  0.07645425     0.03300
C633        C  0.22459103  0.99301941  0.06836707    -0.17200
C634        C  0.25335326  0.99398111  0.07459157     0.03400
C635        C  0.25615639  0.99493422  0.08934921     0.03300
C636        C  0.22927637  0.99345873  0.09742444    -0.17200
H637        H  0.23014236  0.99187277  0.10870323     0.05400
H638        H  0.22369690  0.99376516  0.05708434     0.05400
C639        C  0.03175763  0.52637769  0.01378882     0.03400
C640        C  0.02934217  0.53004652  0.99917538     0.03300
C641        C  0.50030560  0.53006300  0.99365265    -0.17200
C642        C  0.47646703  0.53231411  0.00248531     0.03400
C643        C  0.48152024  0.53363380  0.01712103     0.03300
C644        C  0.50997860  0.53256296  0.02247882    -0.17200
H645        H  0.51414434  0.53477324  0.03366566     0.05400
H646        H  0.49738835  0.53034542  0.98241767     0.05400
C647        C  0.03120543  0.97753865  0.66690282     0.03400
C648        C  0.03215517  0.98118350  0.68159933     0.03300
C649        C  0.02335190  0.51130155  0.68822405    -0.17200
C650        C  0.01804397  0.53360685  0.67952895     0.03400
C651        C  0.01496845  0.52787576  0.66494715     0.03300
C652        C  0.01720914  0.50023830  0.65943538    -0.17200
H653        H  0.01612476  0.49699042  0.64819878     0.05400
H654        H  0.02473960  0.51492788  0.69944232     0.05400
C655        C  0.35240273  0.52271097  0.05522634     0.19800
C656        C  0.38568049  0.55055580  0.05396384    -0.18300
C657        C  0.40938305  0.54916682  0.04487955    -0.10600
C658        C  0.40038136  0.51950886  0.03702623     0.22000
C659        C  0.36720761  0.49156230  0.03841775    -0.19900
C660        C  0.34353900  0.49297219  0.04747569    -0.10800
C661        C  0.41151461  0.00966663  0.02814256    -0.14900
C662        C  0.45844524  0.53718301  0.02727919    -0.28800
C663        C  0.32786814  0.52510163  0.06495655    -0.03000
C664        C  0.27888919  0.99254911  0.06513352    -0.39600
H665        H  0.39319330  0.57368769  0.05985986     0.13200
H666        H  0.43437274  0.57161603  0.04387448     0.12800
H667        H  0.35961389  0.46839919  0.03253061     0.12200
H668        H  0.31853454  0.47052143  0.04850109     0.12500
H669        H  0.40122358  0.98898747  0.02060590     0.15200
H670        H  0.47033249  0.55489096  0.03582535     0.14000
H671        H  0.33819994  0.54361212  0.07335453     0.11700
H672        H  0.26888385  0.97498190  0.05642457     0.13700
C673        C  0.13029659  0.99000240  0.05049776     0.19800
C674        C  0.14323678  0.50642571  0.03568842    -0.18300
C675        C  0.10430661  0.00078361  0.03019384    -0.10600
C676        C  0.07674553  0.99720947  0.03844571     0.22000
C677        C  0.07588025  0.98912863  0.05267909    -0.19900
C678        C  0.10237310  0.98567702  0.05867501    -0.10800
C679        C  0.04767949  0.00002693  0.03250031    -0.14900
C680        C  0.06183821  0.52563516  0.01998839    -0.28800
C681        C  0.15879055  0.98632603  0.05653143    -0.03000
C682        C  0.16938676  0.99514358  0.06979654    -0.39600
H683        H  0.16304235  0.50710488  0.02901128     0.13200
H684        H  0.11535350  0.51030397  0.01832808     0.12800
H685        H  0.05462534  0.98554219  0.05920243     0.12200
H686        H  0.10056200  0.97897828  0.06964470     0.12500
H687        H  0.02335268  0.98669552  0.03799659     0.15200
H688        H  0.08615541  0.53941033  0.01454490     0.14000
H689        H  0.18574049  0.48982083  0.04965902     0.11700
H690        H  0.15668941  0.00557550  0.07610659     0.13700
C691        C  0.37962958  0.01328776  0.13308251     0.19800
C692        C  0.37466671  0.49106933  0.12044396    -0.18300
C693        C  0.33690689  0.98745833  0.11471829    -0.10600
C694        C  0.32756722  0.01287634  0.11626995     0.22000
C695        C  0.34461447  0.03846492  0.12628468    -0.19900
C696        C  0.37034349  0.03878060  0.13459548    -0.10800
C697        C  0.29900709  0.01265046  0.10832919    -0.14900
C698        C  0.28544055  0.99474552  0.09654339    -0.28800
C699        C  0.40541072  0.01103776  0.14213351    -0.03000
C700        C  0.43505372  0.53219532  0.15032497    -0.39600
H701        H  0.37969772  0.47010903  0.11885353     0.13200
H702        H  0.33577074  0.47240734  0.10485632     0.12800
H703        H  0.33770036  0.05815730  0.12781348     0.12200
H704        H  0.38208789  0.05859668  0.14234280     0.12500
H705        H  0.28908423  0.02871215  0.11225836     0.15200
H706        H  0.30893884  0.48856212  0.08973368     0.14000
H707        H  0.42089662  0.48971948  0.13749241     0.11700
H708        H  0.42642768  0.05938588  0.15203962     0.13700
C709        C  0.09419295  0.00194628  0.13683408     0.19800
C710        C  0.08887740  0.97321739  0.12915482    -0.18300
C711        C  0.11516185  0.97405570  0.12100480    -0.10600
C712        C  0.16107518  0.50628983  0.12119880     0.22000
C713        C  0.16516173  0.53136581  0.13085293    -0.19900
C714        C  0.13762367  0.52710927  0.13910069    -0.10800
C715        C  0.19059709  0.51208904  0.11233461    -0.14900
C716        C  0.17140640  0.98784582  0.10016490    -0.28800
C717        C  0.06579013  0.99963778  0.14565740     0.00900
C718        C  0.06392406  0.02716757  0.14986356    -0.39600
H719        H  0.06426366  0.94999745  0.12946878     0.13200
H720        H  0.11021386  0.95124161  0.11539378     0.12800
H721        H  0.18962247  0.55453048  0.13188098     0.12200
H722        H  0.14180578  0.54691568  0.14649486     0.12500
H723        H  0.21616219  0.52920004  0.11620235     0.15200
H724        H  0.14561625  0.97134321  0.09641347     0.14000
H725        H  0.04539853  0.97431466  0.14861675     0.11700
H726        H  0.09035504  0.54450539  0.14805550     0.13700
C727        C  0.32318649  0.83735460  0.22844350     0.19800
C728        C  0.31990904  0.86424464  0.22261685    -0.18300
C729        C  0.34557047  0.88849659  0.21397875    -0.10600
C730        C  0.37496229  0.88610018  0.21093879     0.22000
C731        C  0.37746546  0.85829664  0.21624005    -0.19900
C732        C  0.35188990  0.83415516  0.22495259    -0.10800
C733        C  0.40317780  0.91190837  0.20215833    -0.14900
C734        C  0.41049888  0.94465551  0.20149266    -0.28800
C735        C  0.29599981  0.81277808  0.23791990    -0.03000
C736        C  0.30233723  0.79659186  0.24836149    -0.39600
H737        H  0.29766403  0.86677720  0.22492589     0.13200
H738        H  0.34211162  0.90882913  0.20961207     0.12800
H739        H  0.39952336  0.85554483  0.21380501     0.12200
H740        H  0.35454185  0.81292331  0.22882581     0.12500
H741        H  0.41937230  0.90416873  0.19663428     0.15200
H742        H  0.39591570  0.95333133  0.20760200     0.14000
H743        H  0.27049655  0.80948720  0.23679815     0.11700
H744        H  0.32837443  0.80219389  0.25016830     0.13700
C745        C  0.08873266  0.60574513  0.22488237     0.19800
C746        C  0.09005082  0.63456964  0.23108671    -0.18300
C747        C  0.11564801  0.65403644  0.24070955    -0.10600
C748        C  0.14077900  0.64525923  0.24415993     0.22000
C749        C  0.13883684  0.61584841  0.23831605    -0.19900
C750        C  0.11333594  0.59644530  0.22866825    -0.10800
C751        C  0.17017029  0.66704480  0.25327692    -0.14900
C752        C  0.18406203  0.70122913  0.25350812    -0.28800
C753        C  0.06291098  0.58736787  0.21387088    -0.03000
C754        C  0.05248936  0.55478623  0.21040451    -0.39600
H755        H  0.07140443  0.64223925  0.22837309     0.13200
H756        H  0.11588267  0.67607178  0.24533296     0.12800
H757        H  0.15795094  0.60864400  0.24079273     0.12200
H758        H  0.11390715  0.57503343  0.22384927     0.12500
H759        H  0.18282516  0.65524725  0.25881704     0.15200
H760        H  0.17392375  0.71348966  0.24670775     0.14000
H761        H  0.05241057  0.60126872  0.20833660     0.11700
H762        H  0.06137036  0.53987428  0.21619234     0.13700
C763        C  0.09578405  0.59963422  0.31185325     0.19800
C764        C  0.13030349  0.61967726  0.31550698    -0.18300
C765        C  0.15282245  0.64711495  0.30710150    -0.10600
C766        C  0.14146795  0.65486439  0.29463014     0.22000
C767        C  0.10677396  0.63528427  0.29106874    -0.19900
C768        C  0.08410576  0.60780261  0.29954585    -0.10800
C769        C  0.16520370  0.68309366  0.28518623    -0.14900
C770        C  0.19879775  0.69321885  0.28431962    -0.28800
C771        C  0.07343785  0.57030915  0.32112386    -0.03000
C772        C  0.03912072  0.55558634  0.32174852    -0.39600
H773        H  0.13989547  0.61422498  0.32499979     0.13200
H774        H  0.17900026  0.66234202  0.31053348     0.12800
H775        H  0.09736305  0.64080526  0.28154161     0.12200
H776        H  0.05782823  0.59269830  0.29622699     0.12500
H777        H  0.15452184  0.69496639  0.27846726     0.15200
H778        H  0.20957384  0.68150037  0.29104917     0.14000
H779        H  0.08609342  0.56119768  0.32822408     0.11700
H780        H  0.02551426  0.56328699  0.31455674     0.13700
C781        C  0.40558402  0.89706342  0.30863374     0.19800
C782        C  0.40750881  0.88532378  0.29526259    -0.18300
C783        C  0.37916389  0.85706359  0.28936434    -0.10600
C784        C  0.34793071  0.83966584  0.29674519     0.22000
C785        C  0.34611127  0.85125865  0.31014664    -0.19900
C786        C  0.37436781  0.87954659  0.31601415    -0.10800
C787        C  0.31601698  0.81104682  0.29066378    -0.14900
C788        C  0.31456776  0.79494813  0.27862042    -0.28800
C789        C  0.43608002  0.92840336  0.31416189    -0.03000
C790        C  0.43999781  0.93776923  0.32771901    -0.39600
H791        H  0.43099789  0.89837555  0.28924601     0.13200
H792        H  0.38188129  0.84979225  0.27890643     0.12800
H793        H  0.32239854  0.83874757  0.31604216     0.12200
H794        H  0.37100252  0.88795711  0.32614942     0.12500
H795        H  0.29216772  0.80376985  0.29614107     0.15200
H796        H  0.33780857  0.80156020  0.27292477     0.14000
H797        H  0.45646055  0.94360943  0.30679888     0.11700
H798        H  0.42084974  0.92088120  0.33510940     0.13700
C799        C  0.32162255  0.99654855  0.96969129     0.19800
C800        C  0.34197996  0.02474293  0.97817773    -0.18300
C801        C  0.37270076  0.02921246  0.98375497    -0.10600
C802        C  0.38343695  0.00516210  0.98108074     0.22000
C803        C  0.36268444  0.97667507  0.97281587    -0.19900
C804        C  0.33204062  0.97220505  0.96727670    -0.10800
C805        C  0.41595253  0.00853628  0.98652166    -0.14900
C806        C  0.44791396  0.53576374  0.99632580    -0.28800
C807        C  0.29015512  0.99366431  0.96331785    -0.03000
C808        C  0.29968612  0.50468060  0.94843111    -0.39600
H809        H  0.33449723  0.04382588  0.98022552     0.13200
H810        H  0.38809180  0.05183705  0.98986797     0.12800
H811        H  0.37012067  0.95759236  0.97068598     0.12200
H812        H  0.31656645  0.94950622  0.96120270     0.12500
H813        H  0.43728969  0.49994012  0.98045845     0.15200
H814        H  0.42437658  0.04358017  0.00266556     0.14000
H815        H  0.27917530  0.00805353  0.96800916     0.11700
H816        H  0.31186882  0.49296432  0.94259148     0.13700
C817        C  0.12575789  0.99341937  0.96220604     0.19800
C818        C  0.14197964  0.54555801  0.96291358    -0.18300
C819        C  0.11695266  0.54409601  0.97202642    -0.10600
C820        C  0.07751756  0.99670307  0.98029982     0.22000
C821        C  0.07970575  0.96667125  0.97936559    -0.19900
C822        C  0.10335276  0.96488773  0.97037295    -0.10800
C823        C  0.05260981  0.99761590  0.99033702    -0.14900
C824        C  0.05570370  0.53286389  0.98904701    -0.28800
C825        C  0.17240973  0.51925738  0.95097942    -0.03000
C826        C  0.18659143  0.49909328  0.95210302    -0.39600
H827        H  0.15949252  0.56971825  0.95794917     0.13200
H828        H  0.11632962  0.56744746  0.97399132     0.12800
H829        H  0.06290655  0.94438136  0.98558846     0.12200
H830        H  0.10364402  0.94102115  0.96977858     0.12500
H831        H  0.04177424  0.97765183  0.99828823     0.15200
H832        H  0.06327664  0.55221088  0.98091728     0.14000
H833        H  0.18259833  0.53984373  0.94328135     0.11700
H834        H  0.15573847  0.95313136  0.96248483     0.13700
C835        C  0.30897083  0.98240714  0.89959611     0.19800
C836        C  0.30326438  0.96554486  0.88675253    -0.18300
C837        C  0.33059784  0.96905183  0.87859064    -0.10600
C838        C  0.36450397  0.98939774  0.88315101     0.22000
C839        C  0.37950391  0.52125849  0.88925883    -0.19900
C840        C  0.34302429  0.00374475  0.90392423    -0.10800
C841        C  0.40099933  0.49206789  0.87360079    -0.14900
C842        C  0.39752051  0.46659437  0.86522568    -0.28800
C843        C  0.27858728  0.97694379  0.90792049    -0.03000
C844        C  0.29917960  0.51262427  0.91807002    -0.39600
H845        H  0.27745461  0.94945699  0.88299777     0.13200
H846        H  0.32492123  0.95607630  0.86865502     0.12800
H847        H  0.40450405  0.54394529  0.88864159     0.12200
H848        H  0.36001950  0.54583981  0.90253941     0.12500
H849        H  0.42591809  0.51504908  0.87416003     0.15200
H850        H  0.36778581  0.94641523  0.86407937     0.14000
H851        H  0.25365449  0.96149186  0.90319455     0.11700
H852        H  0.32509531  0.52873060  0.92177191     0.13700
C853        C  0.15388598  0.51219044  0.90098042     0.19800
C854        C  0.15608514  0.53779017  0.89186233    -0.18300
C855        C  0.12794645  0.53251818  0.88380067    -0.10600
C856        C  0.09707775  0.50120685  0.88458271     0.22000
C857        C  0.09484882  0.47576495  0.89377827    -0.19900
C858        C  0.12293632  0.48100924  0.90180963    -0.10800
C859        C  0.06653956  0.49396353  0.87613276    -0.14900
C860        C  0.06796687  0.50978197  0.86397513    -0.28800
C861        C  0.18474097  0.51813705  0.90890971    -0.03000
C862        C  0.18332861  0.50144279  0.92085065    -0.39600
H863        H  0.16961649  0.02050979  0.88559621     0.13200
H864        H  0.12357830  0.01697077  0.87119655     0.12800
H865        H  0.07142357  0.45140380  0.89455704     0.12200
H866        H  0.12045791  0.46022175  0.90836445     0.12500
H867        H  0.04195138  0.47333339  0.87971000     0.15200
H868        H  0.09226021  0.52931685  0.85973441     0.14000
H869        H  0.19197471  0.01340133  0.90777199     0.11700
H870        H  0.15871934  0.48425980  0.92557091     0.13700
C871        C  0.99999239  0.60877263  0.80245553     0.19800
C872        C  0.03030209  0.63677696  0.79749654    -0.18300
C873        C  0.02916044  0.66086913  0.78856166    -0.10600
C874        C  0.49714196  0.65396019  0.78597801     0.22000
C875        C  0.46707147  0.62774111  0.79199198    -0.19900
C876        C  0.46818230  0.60354118  0.80086322    -0.10800
C877        C  0.49481185  0.67927578  0.77672182    -0.14900
C878        C  0.01887412  0.70095079  0.76550772    -0.28800
C879        C  0.00208329  0.58377473  0.81194269    -0.03000
C880        C  0.97819879  0.55051965  0.81220751    -0.39600
H881        H  0.05491215  0.63987513  0.80047352     0.13200
H882        H  0.05303780  0.68237077  0.78504401     0.12800
H883        H  0.44258495  0.62585414  0.78974344     0.12200
H884        H  0.44447976  0.58387431  0.80541220     0.12500
H885        H  0.47318825  0.68348212  0.77821785     0.15200
H886        H  0.04030417  0.69665465  0.76386684     0.14000
H887        H  0.02451607  0.59277714  0.81854905     0.11700
H888        H  0.45334919  0.53842552  0.80781720     0.13700
C889        C  0.98396175  0.87515167  0.79961430     0.19800
C890        C  0.01120831  0.88229269  0.79052132    -0.18300
C891        C  0.01083869  0.85665277  0.78224244    -0.10600
C892        C  0.48595713  0.82255884  0.78366825     0.22000
C893        C  0.46221090  0.81391018  0.79461014    -0.19900
C894        C  0.46027490  0.83931427  0.80228052    -0.10800
C895        C  0.48754861  0.79458878  0.77604663    -0.14900
C896        C  0.99977599  0.80080327  0.76230101    -0.28800
C897        C  0.98558512  0.90377671  0.80792092    -0.03000
C898        C  0.46551684  0.89843949  0.81934715    -0.39600
H899        H  0.03312140  0.90782626  0.78991510     0.13200
H900        H  0.03288519  0.86305023  0.77571197     0.12800
H901        H  0.44491728  0.78730666  0.79720616     0.12200
H902        H  0.44117699  0.83124121  0.81043695     0.12500
H903        H  0.47507583  0.76940856  0.78092031     0.15200
H904        H  0.01157031  0.82613499  0.75760075     0.14000
H905        H  0.00387222  0.92962999  0.80455216     0.11700
H906        H  0.45021539  0.87339318  0.82404660     0.13700
C907        C  0.52018252  0.60109405  0.70354437     0.19800
C908        C  0.54595739  0.62532055  0.71212802    -0.18300
C909        C  0.54231913  0.65139082  0.71838350    -0.10600
C910        C  0.02407122  0.66370801  0.71542977     0.22000
C911        C  0.00652227  0.64904996  0.70298400    -0.19900
C912        C  0.00920900  0.62264113  0.69649428    -0.10800
C913        C  0.01876748  0.69067739  0.72217418    -0.14900
C914        C  0.03039604  0.70374218  0.73495259    -0.28800
C915        C  0.52509868  0.57344905  0.69739394    -0.03000
C916        C  0.01311650  0.56119284  0.68573054    -0.39600
H917        H  0.56917918  0.62421730  0.71393732     0.13200
H918        H  0.56316225  0.66996203  0.72465728     0.12800
H919        H  0.99032224  0.65787031  0.69828625     0.12200
H920        H  0.99534098  0.61260712  0.68688969     0.12500
H921        H  0.00274388  0.69863731  0.71665566     0.15200
H922        H  0.53790540  0.68670671  0.74057453     0.14000
H923        H  0.54468370  0.56903084  0.70198882     0.11700
H924        H  0.99366183  0.56553378  0.68106460     0.13700
C925        C  0.51027207  0.88959978  0.69924512     0.19800
C926        C  0.48117775  0.86014790  0.70416705    -0.18300
C927        C  0.48442237  0.83510807  0.71168385    -0.10600
C928        C  0.02528666  0.84736795  0.71418407     0.22000
C929        C  0.05437468  0.87878576  0.71102269    -0.19900
C930        C  0.05137386  0.90401839  0.70355730    -0.10800
C931        C  0.02907657  0.82118833  0.72222033    -0.14900
C932        C  0.00576702  0.80095401  0.73174678    -0.28800
C933        C  0.50609172  0.91518888  0.69092148    -0.03000
C934        C  0.03614516  0.95717895  0.69108461    -0.39600
H935        H  0.45589695  0.85663552  0.70225926     0.13200
H936        H  0.46147580  0.81263863  0.71532100     0.12800
H937        H  0.07941713  0.88389431  0.71443998     0.12200
H938        H  0.07433018  0.92785053  0.70113605     0.12500
H939        H  0.05258779  0.82013852  0.72102027     0.15200
H940        H  0.48081866  0.80004819  0.73610624     0.14000
H941        H  0.48446928  0.90591401  0.68384287     0.11700
H942        H  0.05534134  0.96779216  0.69922735     0.13700
C943        C  0.03721467  0.90865272  0.54986842     0.19800
C944        C  0.50691502  0.87254317  0.55249873    -0.18300
C945        C  0.50757233  0.84996837  0.56238869    -0.10600
C946        C  0.03980610  0.86121305  0.56861293     0.22000
C947        C  0.06729254  0.89482669  0.56755528    -0.19900
C948        C  0.06611030  0.91825021  0.55820978    -0.10800
C949        C  0.04216827  0.83738723  0.57880843    -0.14900
C950        C  0.02024987  0.80348833  0.57928153    -0.28800
C951        C  0.53627823  0.92871403  0.53936302    -0.03000
C952        C  0.00719865  0.93252413  0.53618568    -0.39600
H953        H  0.48333479  0.86486516  0.54691988     0.13200
H954        H  0.48413333  0.82632289  0.56442829     0.12800
H955        H  0.08981855  0.90299523  0.57396644     0.12200
H956        H  0.08765193  0.94400526  0.55758958     0.12500
H957        H  0.06352820  0.84805360  0.58604223     0.15200
H958        H  0.49954398  0.78899697  0.57191374     0.14000
H959        H  0.56023991  0.94645264  0.53424744     0.11700
H960        H  0.98309957  0.91375742  0.54086385     0.13700
C961        C  0.00713562  0.60011745  0.55158156     0.19800
C962        C  0.53374058  0.61398005  0.56242599    -0.18300
C963        C  0.53381462  0.64020666  0.57029112    -0.10600
C964        C  0.00670993  0.65213588  0.56779664     0.22000
C965        C  0.97679185  0.62764595  0.56120876    -0.19900
C966        C  0.97682457  0.60167240  0.55327604    -0.10800
C967        C  0.00612681  0.68055464  0.57529001    -0.14900
C968        C  0.02838760  0.69870237  0.58540605    -0.28800
C969        C  0.51219482  0.57199882  0.54292389    -0.03000
C970        C  0.48711487  0.55033008  0.53437802    -0.39600
H971        H  0.55275422  0.60645414  0.56461165     0.13200
H972        H  0.55303269  0.65199648  0.57827919     0.12800
H973        H  0.95331132  0.62869904  0.56216344     0.12200
H974        H  0.95308469  0.58312237  0.54853292     0.12500
H975        H  0.98609269  0.68637789  0.57253666     0.15200
H976        H  0.54743801  0.69013766  0.59006492     0.14000
H977        H  0.53599914  0.57126358  0.54327218     0.11700
H978        H  0.96320810  0.55742149  0.53132105     0.13700
C979        C  0.52036073  0.65094370  0.62664269     0.19800
C980        C  0.49258982  0.61778682  0.62844289    -0.18300
C981        C  0.49463272  0.59474360  0.63771982    -0.10600
C982        C  0.02718125  0.60816591  0.64496897     0.22000
C983        C  0.05579355  0.64025149  0.64219509    -0.19900
C984        C  0.05349992  0.66330678  0.63300045    -0.10800
C985        C  0.03062987  0.58473436  0.65499646    -0.14900
C986        C  0.01013897  0.55055648  0.65498089    -0.28800
C987        C  0.51689069  0.67448009  0.61666855    -0.03000
C988        C  0.04002538  0.71241348  0.61614825    -0.39600
H989        H  0.46902019  0.60979833  0.62277213     0.13200
H990        H  0.47230436  0.56979108  0.63909511     0.12800
H991        H  0.08014299  0.64736574  0.64705094     0.12200
H992        H  0.07641854  0.68734335  0.63085064     0.12500
H993        H  0.05171239  0.59588797  0.66235487     0.15200
H994        H  0.49098334  0.53451201  0.64653398     0.14000
H995        H  0.49579649  0.66334397  0.60931793     0.11700
H996        H  0.06015799  0.72448382  0.62383904     0.13700
C997        C  0.03833741  0.85869183  0.62836018     0.19800
C998        C  0.04346632  0.86381665  0.64280159    -0.18300
C999        C  0.03826082  0.88842828  0.64951677    -0.10600
C1000       C  0.52530178  0.90561531  0.64250888     0.22000
C1001       C  0.52323697  0.90198355  0.62794109    -0.19900
C1002       C  0.52754688  0.87652269  0.62151153    -0.10800
C1003       C  0.51929868  0.93220160  0.64890386    -0.14900
C1004       C  0.03763719  0.95130787  0.66031112    -0.28800
C1005       C  0.04355540  0.83187994  0.62169377    -0.03000
C1006       C  0.02691501  0.81535440  0.61006895    -0.39600
H1007       H  0.05092492  0.84827601  0.64895112     0.13200
H1008       H  0.04138669  0.89085070  0.66073372     0.12800
H1009       H  0.51849817  0.91909521  0.62149798     0.12200
H1010       H  0.52664445  0.87507670  0.61022520     0.12500
H1011       H  0.50342599  0.93994391  0.64314134     0.15200
H1012       H  0.05530827  0.94507529  0.66551227     0.14000
H1013       H  0.06074339  0.82487328  0.62683425     0.11700
H1014       H  0.50641808  0.81887293  0.60585057     0.13700
C1015       C  0.12775356  0.59973995  0.46644160     0.19800
C1016       C  0.14824768  0.59390442  0.45701891    -0.18300
C1017       C  0.17141914  0.62018616  0.44819200    -0.10600
C1018       C  0.17468018  0.65301189  0.44872620     0.22000
C1019       C  0.15460291  0.65886001  0.45835886    -0.19900
C1020       C  0.13143828  0.63264274  0.46710075    -0.10800
C1021       C  0.19912730  0.68225854  0.43984243    -0.14900
C1022       C  0.21445619  0.67932419  0.42824825    -0.28800
C1023       C  0.10346610  0.57157812  0.47577572    -0.03000
C1024       C  0.07411157  0.56950761  0.48019318    -0.39600
H1025       H  0.14620162  0.56889477  0.45644609     0.13200
H1026       H  0.18696736  0.61467980  0.44121115     0.12800
H1027       H  0.15687275  0.68393607  0.45915697     0.12200
H1028       H  0.11695581  0.63846591  0.47455807     0.12500
H1029       H  0.20357562  0.70753298  0.44265583     0.15200
H1030       H  0.20895177  0.65432059  0.42469501     0.14000
H1031       H  0.10917983  0.55150652  0.47863779     0.11700
H1032       H  0.06690583  0.58792335  0.47647294     0.13700
C1033       C  0.34779163  0.82945349  0.44665403     0.19800
C1034       C  0.37022971  0.82616965  0.45589079    -0.18300
C1035       C  0.39134384  0.85296568  0.46471929    -0.10600
C1036       C  0.39045847  0.88381763  0.46453642     0.22000
C1037       C  0.36765837  0.88699067  0.45546440    -0.19900
C1038       C  0.34660652  0.86018299  0.44655125    -0.10800
C1039       C  0.41195457  0.91243898  0.47408282    -0.14900
C1040       C  0.44240116  0.91797390  0.47880714    -0.28800
C1041       C  0.32475866  0.79941001  0.43803860    -0.03000
C1042       C  0.30811554  0.80079027  0.42657436    -0.39600
H1043       H  0.37123664  0.80259194  0.45637230     0.13200
H1044       H  0.40765360  0.84903362  0.47191020     0.12800
H1045       H  0.36611719  0.91029258  0.45528567     0.12200
H1046       H  0.32894903  0.86340686  0.43991164     0.12500
H1047       H  0.40293257  0.92998282  0.47698723     0.15200
H1048       H  0.45278092  0.90201205  0.47529746     0.14000
H1049       H  0.32202789  0.77487981  0.44113303     0.11700
H1050       H  0.31256869  0.82524974  0.42253962     0.13700
C1051       C  0.10576237  0.59168185  0.36802896     0.19800
C1052       C  0.13126978  0.58837856  0.37514420    -0.18300
C1053       C  0.15934592  0.61693099  0.38091847    -0.10600
C1054       C  0.16229057  0.64954747  0.37989088     0.22000
C1055       C  0.13707233  0.65295852  0.37259838    -0.19900
C1056       C  0.10897986  0.62440062  0.36682346    -0.10800
C1057       C  0.19088122  0.68044099  0.38640299    -0.14900
C1058       C  0.20852937  0.67888315  0.39747913    -0.28800
C1059       C  0.07608420  0.56034460  0.36230327    -0.03000
C1060       C  0.05536389  0.56084827  0.35226893    -0.39600
H1061       H  0.12957592  0.56356701  0.37617927     0.13200
H1062       H  0.17871107  0.61324462  0.38604402     0.12800
H1063       H  0.13869214  0.67775001  0.37164006     0.12200
H1064       H  0.08963124  0.62816670  0.36174286     0.12500
H1065       H  0.19562513  0.70530616  0.38268858     0.15200
H1066       H  0.20191118  0.65413022  0.40185105     0.14000
H1067       H  0.07220740  0.53576477  0.36599899     0.11700
H1068       H  0.06042497  0.58499483  0.34767169     0.13700
C1069       C  0.36115512  0.84783169  0.38783234     0.19800
C1070       C  0.39638594  0.85908292  0.38762605    -0.18300
C1071       C  0.41879603  0.88714618  0.37937742    -0.10600
C1072       C  0.40634135  0.90468663  0.37117159     0.22000
C1073       C  0.37129111  0.89400786  0.37169010    -0.19900
C1074       C  0.34892691  0.86598734  0.37990760    -0.10800
C1075       C  0.42868646  0.93436473  0.36205426    -0.14900
C1076       C  0.45982037  0.94153183  0.35745147    -0.28800
C1077       C  0.33826195  0.81790959  0.39677166    -0.03000
C1078       C  0.30408890  0.79942860  0.39510212    -0.39600
H1079       H  0.40661257  0.84600274  0.39383420     0.13200
H1080       H  0.44574438  0.89511437  0.37963394     0.12800
H1081       H  0.36107272  0.90733632  0.36563829     0.12200
H1082       H  0.32225172  0.85911823  0.38014276     0.12500
H1083       H  0.41826274  0.95016218  0.35823384     0.15200
H1084       H  0.47153528  0.92662209  0.36077096     0.14000
H1085       H  0.35016808  0.81000611  0.40474441     0.11700
H1086       H  0.29213072  0.80447399  0.38625948     0.13700
C1087       C  0.77414111  0.27292184  0.40553291     0.03400
C1088       C  0.77832030  0.27289300  0.42019125     0.03300
C1089       C  0.75703564  0.24315476  0.42787956    -0.17200
C1090       C  0.73168857  0.21344862  0.42142377     0.03400
C1091       C  0.72738403  0.21334013  0.40676228     0.03300
C1092       C  0.74845040  0.24336242  0.39903777    -0.17200
H1093       H  0.74575403  0.24341527  0.38778856     0.05400
H1094       H  0.75982579  0.24322431  0.43911918     0.05400
C1095       C  0.52447549  0.28178567  0.60725437     0.03400
C1096       C  0.52012226  0.27547038  0.59272528     0.03300
C1097       C  0.51946294  0.24628206  0.58732028    -0.17200
C1098       C  0.52378075  0.22326318  0.59592654     0.03400
C1099       C  0.52960947  0.23028531  0.61039315     0.03300
C1100       C  0.53000004  0.25945389  0.61584113    -0.17200
H1101       H  0.53285269  0.26363438  0.62701374     0.05400
H1102       H  0.51656849  0.24208037  0.57614085     0.05400
In1103     In  0.00079164  0.99555873  0.50656382     1.36900
C1104       C  0.96523209  0.44859583  0.48743701     0.78700
O1105       O  0.51673628  0.03459906  0.49073418    -0.59800
O1106       O  0.55518390  0.02329261  0.49746113    -0.50700
C1107       C  0.99033629  0.03546260  0.52368955     0.71300
O1108       O  0.96729081  0.01459825  0.51563466    -0.45500
C1109       C  0.50216702  0.44600677  0.52533448     0.76000
O1110       O  0.95542030  0.46704516  0.49361844    -0.57400
O1111       O  0.52907888  0.46751855  0.51900882    -0.47500
O1112       O  0.99460419  0.45402842  0.49074964    -0.53800
C1113       C  0.54738034  0.04133163  0.48977312     0.86200
O1114       O  0.51923168  0.03278947  0.52364870    -0.55700
O1115       O  0.97639629  0.45255000  0.52190843    -0.59000
C1116       C  0.50943177  0.27243386  0.75259552     0.03400
C1117       C  0.51109469  0.27047254  0.73784527     0.03300
C1118       C  0.51691413  0.24528659  0.73189313    -0.17200
C1119       C  0.52207866  0.22243432  0.74026548     0.03400
C1120       C  0.52140317  0.22496660  0.75494699     0.03300
C1121       C  0.51578501  0.25024765  0.76087753    -0.17200
H1122       H  0.01560400  0.25365751  0.77209274     0.05400
H1123       H  0.51791771  0.24385341  0.72061093     0.05400
In1124     In  0.98165706  0.48196922  0.84001192     1.36900
C1125       C  0.97903485  0.42931157  0.82625524     0.78700
O1126       O  0.95161564  0.99810911  0.82403896    -0.59800
O1127       O  0.49831531  0.03407261  0.83295638    -0.50700
C1128       C  0.92178423  0.97488676  0.85697328     0.71300
O1129       O  0.95806339  0.49987785  0.85631323    -0.45500
C1130       C  0.52578288  0.99339817  0.85795668     0.76000
O1131       O  0.96521973  0.42603079  0.83804259    -0.57400
O1132       O  0.49549899  0.97141204  0.86107996    -0.47500
O1133       O  0.48477163  0.45196671  0.82147418    -0.53800
C1134       C  0.47503373  0.02754654  0.82416801     0.86200
O1135       O  0.91903135  0.95338997  0.84796123    -0.55700
O1136       O  0.53411769  0.50146103  0.84407000    -0.59000
C1137       C  0.70069903  0.98875189  0.94516707     0.03400
C1138       C  0.69820246  0.98884825  0.93040161     0.03300
C1139       C  0.72587534  0.99270697  0.92217234    -0.17200
C1140       C  0.75583494  0.99626432  0.92823427     0.03400
C1141       C  0.75821021  0.99593692  0.94293996     0.03300
C1142       C  0.73062145  0.99200245  0.95122551    -0.17200
H1143       H  0.73228423  0.99108708  0.96250476     0.05400
H1144       H  0.72395600  0.99274683  0.91090308     0.05400
C1145       C  0.77012574  0.28730895  0.26015447     0.03400
C1146       C  0.77689380  0.28186359  0.27408866     0.03300
C1147       C  0.75125370  0.25443896  0.28182185    -0.17200
C1148       C  0.71879621  0.23284027  0.27617548     0.03400
C1149       C  0.71169779  0.23945045  0.26244954     0.03300
C1150       C  0.73698452  0.26707514  0.25484648    -0.17200
H1151       H  0.73086453  0.27196702  0.24444316     0.05400
H1152       H  0.75682058  0.24943990  0.29231745     0.05400
C1153       C  0.97665440  0.47270239  0.34999919     0.03400
C1154       C  0.96819530  0.47102123  0.33567641     0.03300
C1155       C  0.98905971  0.49874038  0.32683575    -0.17200
C1156       C  0.51780292  0.02799095  0.33031570     0.03400
C1157       C  0.52663181  0.02903370  0.34462501     0.03300
C1158       C  0.00605675  0.50133759  0.35503651    -0.17200
H1159       H  0.01189376  0.50246947  0.36607033     0.05400
H1160       H  0.98239463  0.49808618  0.31591874     0.05400
In1161     In  0.98950053  0.02286869  0.17647052     1.36900
C1162       C  0.53054276  0.05247052  0.19831389     0.78700
O1163       O  0.94375600  0.48559249  0.18799472    -0.59800
O1164       O  0.96324384  0.45230445  0.18291931    -0.50700
C1165       C  0.95187266  0.03569729  0.15868651     0.71300
O1166       O  0.97027150  0.05701011  0.16785521    -0.45500
C1167       C  0.54058835  0.51398644  0.15875082     0.76000
O1168       O  0.51667187  0.06540007  0.19077410    -0.57400
O1169       O  0.51808050  0.48559844  0.16379036    -0.47500
O1170       O  0.52248257  0.02211296  0.19540141    -0.53800
C1171       C  0.93993899  0.45594164  0.18872080     0.86200
O1172       O  0.96021930  0.49745069  0.15720248    -0.55700
O1173       O  0.53363186  0.04587631  0.16362045    -0.59000
C1174       C  0.71362953  0.50122750  0.09030335     0.03400
C1175       C  0.71144089  0.50233274  0.07558633     0.03300
C1176       C  0.73666290  0.50087874  0.06735767    -0.17200
C1177       C  0.76443731  0.49961687  0.07342354     0.03400
C1178       C  0.76792440  0.50109277  0.08816335     0.03300
C1179       C  0.74213827  0.50141925  0.09639443    -0.17200
H1180       H  0.74326133  0.49972142  0.10765778     0.05400
H1181       H  0.73555091  0.50167099  0.05608283     0.05400
C1182       C  0.52129323  0.02560784  0.01424034     0.03400
C1183       C  0.51650401  0.02519761  0.99958594     0.03300
C1184       C  0.98997263  0.02464837  0.99465003    -0.17200
C1185       C  0.96522050  0.02541966  0.00343653     0.03400
C1186       C  0.96840874  0.02356228  0.01809905     0.03300
C1187       C  0.99606290  0.02095943  0.02350234    -0.17200
H1188       H  0.99897109  0.02091026  0.03473999     0.05400
H1189       H  0.98858114  0.02738167  0.98344870     0.05400
C1190       C  0.52346603  0.47568892  0.66813465     0.03400
C1191       C  0.52444246  0.48008606  0.68280726     0.03300
C1192       C  0.51900250  0.99942241  0.68893335    -0.17200
C1193       C  0.51426556  0.02283171  0.68071151     0.03400
C1194       C  0.51544575  0.02109492  0.66596550     0.03300
C1195       C  0.52068623  0.99579106  0.65983587    -0.17200
H1196       H  0.52254952  0.99544379  0.64855788     0.05400
H1197       H  0.51743429  0.00006146  0.70022092     0.05400
C1198       C  0.83682018  0.01287508  0.05479403     0.19800
C1199       C  0.87120653  0.02755477  0.05880651    -0.18300
C1200       C  0.89534018  0.02569790  0.05014115    -0.10600
C1201       C  0.88569366  0.00939545  0.03707655     0.22000
C1202       C  0.85127542  0.99469802  0.03306563    -0.19900
C1203       C  0.82713327  0.99651372  0.04174339    -0.10800
C1204       C  0.91999878  0.51051031  0.02605856    -0.14900
C1205       C  0.94465054  0.02603972  0.02827618    -0.28800
C1206       C  0.81226607  0.01578999  0.06442361    -0.03000
C1207       C  0.78833012  0.49583464  0.06378340    -0.39600
H1208       H  0.87941474  0.04026684  0.06878906     0.13200
H1209       H  0.92127597  0.03676556  0.05388981     0.12800
H1210       H  0.84306758  0.98211267  0.02305672     0.12200
H1211       H  0.80119567  0.98562677  0.03799361     0.12500
H1212       H  0.90957197  0.49296053  0.01733932     0.15200
H1213       H  0.95631397  0.04330306  0.03695052     0.14000
H1214       H  0.82286091  0.03522923  0.07246734     0.11700
H1215       H  0.77694156  0.47872165  0.05502618     0.13700
C1216       C  0.64500477  0.50390875  0.04998423     0.19800
C1217       C  0.63016112  0.00106455  0.03579557    -0.18300
C1218       C  0.61811472  0.51283438  0.02953788    -0.10600
C1219       C  0.59175358  0.51152834  0.03792934     0.22000
C1220       C  0.59216064  0.50605606  0.05235608    -0.19900
C1221       C  0.61851877  0.50240991  0.05835534    -0.10800
C1222       C  0.56233210  0.51352004  0.03194331    -0.14900
C1223       C  0.55144909  0.02486448  0.02029324    -0.28800
C1224       C  0.67266321  0.49869916  0.05590028    -0.03000
C1225       C  0.68389204  0.50722277  0.06910526    -0.39600
H1226       H  0.64954970  0.00102165  0.02907176     0.13200
H1227       H  0.60385417  0.00805196  0.01858205     0.12800
H1228       H  0.57184298  0.50435588  0.05900575     0.12200
H1229       H  0.61744525  0.49740293  0.06946895     0.12500
H1230       H  0.53842354  0.50097129  0.03776367     0.15200
H1231       H  0.57530022  0.03717000  0.01445941     0.14000
H1232       H  0.67038598  0.98081169  0.04962742     0.11700
H1233       H  0.67268960  0.51897621  0.07553494     0.13700
C1234       C  0.89135717  0.51395234  0.13054086     0.19800
C1235       C  0.86258704  0.99207029  0.12237523    -0.18300
C1236       C  0.84669434  0.48917408  0.11288956    -0.10600
C1237       C  0.83987721  0.51636746  0.11432703     0.22000
C1238       C  0.85930116  0.54244137  0.12385958    -0.19900
C1239       C  0.88482774  0.54141751  0.13184675    -0.10800
C1240       C  0.81171618  0.51765892  0.10669188    -0.14900
C1241       C  0.79646155  0.49921551  0.09519727    -0.28800
C1242       C  0.91670390  0.51012788  0.13928273    -0.03000
C1243       C  0.92961438  0.04187624  0.14914803    -0.39600
H1244       H  0.86534602  0.96944845  0.12256109     0.13200
H1245       H  0.81991797  0.96878019  0.10854094     0.12800
H1246       H  0.85452222  0.56363680  0.12522120     0.12200
H1247       H  0.89884800  0.56205925  0.13905666     0.12500
H1248       H  0.80363273  0.53526843  0.11055562     0.15200
H1249       H  0.79644805  0.98408579  0.09090127     0.14000
H1250       H  0.91157631  0.99516199  0.13884565     0.11700
H1251       H  0.93367099  0.55407324  0.15201926     0.13700
C1252       C  0.60246944  0.49687729  0.13692085     0.19800
C1253       C  0.59923399  0.47035848  0.12828034    -0.18300
C1254       C  0.62680496  0.47443608  0.12008398    -0.10600
C1255       C  0.64746638  0.00403795  0.12074211     0.22000
C1256       C  0.65318387  0.02947543  0.13049602    -0.19900
C1257       C  0.62654985  0.02677694  0.13893081    -0.10800
C1258       C  0.67670834  0.00819281  0.11198654    -0.14900
C1259       C  0.68433255  0.49608492  0.09924248    -0.28800
C1260       C  0.57275788  0.49183691  0.14550173     0.00900
C1261       C  0.56826445  0.51805022  0.14933400    -0.39600
H1262       H  0.57521556  0.44652317  0.12779040     0.13200
H1263       H  0.62349207  0.45335252  0.11361681     0.12800
H1264       H  0.67838144  0.05166062  0.13155695     0.12200
H1265       H  0.63215164  0.04672371  0.14645755     0.12500
H1266       H  0.70239093  0.02596228  0.11555198     0.15200
H1267       H  0.65881056  0.48082202  0.09499504     0.14000
H1268       H  0.55391148  0.46591816  0.14857203     0.11700
H1269       H  0.58204622  0.04776448  0.14790189     0.13700
C1270       C  0.82758555  0.33352332  0.22833676     0.19800
C1271       C  0.82115503  0.34214841  0.21502586    -0.18300
C1272       C  0.84824575  0.36420799  0.20636374    -0.10600
C1273       C  0.88222438  0.37722441  0.21077181     0.22000
C1274       C  0.88867917  0.36752649  0.22386574    -0.19900
C1275       C  0.86154925  0.34615647  0.23268353    -0.10800
C1276       C  0.91116504  0.40193252  0.20205523    -0.14900
C1277       C  0.91022942  0.42829392  0.19589911    -0.28800
C1278       C  0.79855916  0.30948150  0.23714487    -0.03000
C1279       C  0.79758812  0.31352174  0.25103582    -0.39600
H1280       H  0.79512260  0.33214273  0.21141908     0.13200
H1281       H  0.84269555  0.37095076  0.19619625     0.12800
H1282       H  0.91471657  0.37717016  0.22739439     0.12200
H1283       H  0.86708329  0.33902093  0.24277173     0.12500
H1284       H  0.93470107  0.40068049  0.20193919     0.15200
H1285       H  0.88793390  0.43143224  0.19727249     0.14000
H1286       H  0.77790732  0.28771722  0.23193831     0.11700
H1287       H  0.81849219  0.33591349  0.25582278     0.13700
C1288       C  0.59041003  0.12275617  0.22355501     0.19800
C1289       C  0.58902203  0.14915082  0.23073460    -0.18300
C1290       C  0.61404532  0.16867865  0.24053697    -0.10600
C1291       C  0.64131922  0.16249046  0.24314092     0.22000
C1292       C  0.64245977  0.13581151  0.23610882    -0.19900
C1293       C  0.61745000  0.11628087  0.22632478    -0.10800
C1294       C  0.66949044  0.18390323  0.25278568    -0.14900
C1295       C  0.67970824  0.21705513  0.25493671    -0.28800
C1296       C  0.56415681  0.10336311  0.21285540    -0.03000
C1297       C  0.55498843  0.07100776  0.20951288    -0.39600
H1298       H  0.56844302  0.15458304  0.22878315     0.13200
H1299       H  0.61191412  0.18849813  0.24605525     0.12800
H1300       H  0.66331537  0.13069970  0.23789828     0.12200
H1301       H  0.61996359  0.09682546  0.22069371     0.12500
H1302       H  0.68441261  0.17313595  0.25720561     0.15200
H1303       H  0.66760981  0.22929163  0.24933801     0.14000
H1304       H  0.55164420  0.11587731  0.20775375     0.11700
H1305       H  0.56583408  0.05747742  0.21504073     0.13700
C1306       C  0.59313256  0.10470445  0.31128106     0.19800
C1307       C  0.62682988  0.12687656  0.31551173    -0.18300
C1308       C  0.64863625  0.15528673  0.30738933    -0.10600
C1309       C  0.63737993  0.16199027  0.29467228     0.22000
C1310       C  0.60343086  0.14028178  0.29053011    -0.19900
C1311       C  0.58147293  0.11175286  0.29871049    -0.10800
C1312       C  0.66048159  0.19156145  0.28566368    -0.14900
C1313       C  0.69443899  0.20328696  0.28494247    -0.28800
C1314       C  0.57181307  0.07422501  0.32017686    -0.03000
C1315       C  0.53737211  0.05727864  0.32054152    -0.39600
H1316       H  0.63632877  0.12227054  0.32521904     0.13200
H1317       H  0.67418631  0.17211139  0.31119806     0.12800
H1318       H  0.59413867  0.14500371  0.28079350     0.12200
H1319       H  0.55584344  0.09497798  0.29498280     0.12500
H1320       H  0.64905052  0.20328385  0.27930198     0.15200
H1321       H  0.70556942  0.19146093  0.29142834     0.14000
H1322       H  0.58539057  0.06603660  0.32720442     0.11700
H1323       H  0.52298999  0.06404666  0.31335588     0.13700
C1324       C  0.90427989  0.39861883  0.31157982     0.19800
C1325       C  0.90710691  0.37849859  0.30105243    -0.18300
C1326       C  0.87781113  0.35105126  0.29531151    -0.10600
C1327       C  0.84504198  0.34351999  0.29991712     0.22000
C1328       C  0.84232577  0.36335910  0.31056267    -0.19900
C1329       C  0.87148307  0.39076774  0.31623979    -0.10800
C1330       C  0.81294354  0.31606349  0.29373963    -0.14900
C1331       C  0.81067368  0.30445184  0.28063597    -0.28800
C1332       C  0.93575121  0.42830508  0.31715223    -0.03000
C1333       C  0.93717337  0.44087990  0.33002512    -0.39600
H1334       H  0.93206067  0.38400135  0.29728375     0.13200
H1335       H  0.88099752  0.33585806  0.28734724     0.12800
H1336       H  0.81742628  0.35824253  0.31424620     0.12200
H1337       H  0.86804368  0.40623588  0.32399498     0.12500
H1338       H  0.78949045  0.30776127  0.29968246     0.15200
H1339       H  0.83344764  0.31427180  0.27417700     0.14000
H1340       H  0.95865640  0.43926971  0.31068223     0.11700
H1341       H  0.91520280  0.42776002  0.33684702     0.13700
C1342       C  0.84485224  0.51935547  0.96542148     0.19800
C1343       C  0.85360365  0.53054775  0.97925132    -0.18300
C1344       C  0.88234746  0.53186239  0.98554651    -0.10600
C1345       C  0.90326664  0.52232671  0.97802901     0.22000
C1346       C  0.89494620  0.51196111  0.96410628    -0.19900
C1347       C  0.86634242  0.51072976  0.95782317    -0.10800
C1348       C  0.93288460  0.52103768  0.98432571    -0.14900
C1349       C  0.93764880  0.03052635  0.99726997    -0.28800
C1350       C  0.81358423  0.51755697  0.95923577    -0.03000
C1351       C  0.78844954  0.99675184  0.94953110    -0.39600
H1352       H  0.83773014  0.53764448  0.98531236     0.13200
H1353       H  0.88733296  0.53946318  0.99636690     0.12800
H1354       H  0.91067677  0.50470230  0.95802878     0.12200
H1355       H  0.86157987  0.50331498  0.94697797     0.12500
H1356       H  0.93073242  0.00047452  0.97954518     0.15200
H1357       H  0.93913801  0.55074814  0.00225450     0.14000
H1358       H  0.80316459  0.53210348  0.96422631     0.11700
H1359       H  0.79814218  0.98148506  0.94465791     0.13700
C1360       C  0.64121213  0.50654433  0.96181691     0.19800
C1361       C  0.61536647  0.02273505  0.95931840    -0.18300
C1362       C  0.59052070  0.02333461  0.96793676    -0.10600
C1363       C  0.59095800  0.50589134  0.97988623     0.22000
C1364       C  0.61246954  0.49348106  0.98446874    -0.19900
C1365       C  0.63750610  0.49400464  0.97560216    -0.10800
C1366       C  0.56540608  0.50577847  0.98981885    -0.14900
C1367       C  0.54124835  0.02510602  0.98925145    -0.28800
C1368       C  0.65597827  0.00257099  0.95284696    -0.03000
C1369       C  0.67283688  0.98501111  0.95473913    -0.39600
H1370       H  0.62423970  0.03948408  0.95025172     0.13200
H1371       H  0.58114662  0.04044881  0.96504137     0.12800
H1372       H  0.61035656  0.48396000  0.99505783     0.12200
H1373       H  0.65427268  0.48532076  0.97975107     0.12500
H1374       H  0.55771155  0.48817432  0.99864362     0.15200
H1375       H  0.54860901  0.04343640  0.98076505     0.14000
H1376       H  0.66324099  0.02003940  0.94399200     0.11700
H1377       H  0.67768937  0.47243078  0.96219395     0.13700
C1378       C  0.81768510  0.48991494  0.89634159     0.19800
C1379       C  0.81082039  0.46459190  0.88636042    -0.18300
C1380       C  0.83712769  0.46570821  0.87814607    -0.10600
C1381       C  0.87108673  0.49238003  0.87974448     0.22000
C1382       C  0.87115529  0.01738835  0.89211703    -0.19900
C1383       C  0.85139341  0.51718415  0.89759408    -0.10800
C1384       C  0.89420184  0.99445549  0.87409296    -0.14900
C1385       C  0.89208579  0.97055306  0.86512055    -0.28800
C1386       C  0.78903315  0.48719141  0.90508663    -0.03000
C1387       C  0.78531781  0.00171122  0.91927273    -0.39600
H1388       H  0.78500262  0.44362556  0.88499942     0.13200
H1389       H  0.83042641  0.44570518  0.87056437     0.12800
H1390       H  0.89696208  0.03812721  0.89376196     0.12200
H1391       H  0.85069170  0.03690351  0.90734372     0.12500
H1392       H  0.91896231  0.01719312  0.87556915     0.15200
H1393       H  0.87545770  0.44541639  0.86246839     0.14000
H1394       H  0.76315180  0.47005672  0.90155478     0.11700
H1395       H  0.81070001  0.01659356  0.92362843     0.13700
C1396       C  0.63738683  0.99524705  0.90354350     0.19800
C1397       C  0.64290987  0.00764271  0.88976763    -0.18300
C1398       C  0.61570690  0.00351955  0.88146480    -0.10600
C1399       C  0.58216875  0.98732019  0.88685451     0.22000
C1400       C  0.57653333  0.97470703  0.90063395    -0.19900
C1401       C  0.60385161  0.97872638  0.90895610    -0.10800
C1402       C  0.55246388  0.98213300  0.87828069    -0.14900
C1403       C  0.55543245  0.00038915  0.86665362    -0.28800
C1404       C  0.66760414  0.00071523  0.91174860    -0.03000
C1405       C  0.66637687  0.98297261  0.92331156    -0.39600
H1406       H  0.67446836  0.54688471  0.89072945     0.13200
H1407       H  0.62598858  0.53940640  0.87682907     0.12800
H1408       H  0.55092885  0.96196038  0.90501498     0.12200
H1409       H  0.59855262  0.96936529  0.91960860     0.12500
H1410       H  0.52714885  0.96268270  0.88172779     0.15200
H1411       H  0.58008391  0.02090712  0.86321091     0.14000
H1412       H  0.70169343  0.52376844  0.90590251     0.11700
H1413       H  0.64207378  0.96401070  0.92774544     0.13700
C1414       C  0.50258698  0.11038275  0.80324388     0.19800
C1415       C  0.53327483  0.13444646  0.79680882    -0.18300
C1416       C  0.53377739  0.15877619  0.78747275    -0.10600
C1417       C  0.00164298  0.16115820  0.78493700     0.22000
C1418       C  0.97112023  0.13673598  0.79133286    -0.19900
C1419       C  0.97089324  0.11235704  0.80050288    -0.10800
C1420       C  0.00059043  0.18633016  0.77518426    -0.14900
C1421       C  0.52466433  0.20030042  0.76435551    -0.28800
C1422       C  0.50259637  0.08457659  0.81295700    -0.03000
C1423       C  0.47527050  0.05320430  0.81450800    -0.39600
H1424       H  0.55681994  0.13419386  0.79891322     0.13200
H1425       H  0.55789297  0.17715553  0.78276825     0.12800
H1426       H  0.94727851  0.13628872  0.78910406     0.12200
H1427       H  0.94689382  0.09399635  0.80529781     0.12500
H1428       H  0.97974417  0.19183414  0.77643747     0.15200
H1429       H  0.54371295  0.19291629  0.76201436     0.14000
H1430       H  0.52606611  0.09102094  0.81851832     0.11700
H1431       H  0.95268346  0.04625804  0.80783707     0.13700
C1432       C  0.47793785  0.36850525  0.79650993     0.19800
C1433       C  0.49584367  0.37779259  0.78377656    -0.18300
C1434       C  0.49870036  0.35361543  0.77566330    -0.10600
C1435       C  0.98777863  0.32365309  0.78002977     0.22000
C1436       C  0.97986889  0.31771322  0.79433789    -0.19900
C1437       C  0.98000758  0.34307952  0.80278664    -0.10800
C1438       C  0.98912882  0.29641078  0.77174239    -0.14900
C1439       C  0.50149100  0.29755712  0.75943465    -0.28800
C1440       C  0.47770381  0.39601617  0.80499412    -0.03000
C1441       C  0.97687765  0.39993199  0.81858678    -0.39600
H1442       H  0.50854348  0.40418387  0.78023481     0.13200
H1443       H  0.51403631  0.36261766  0.76627666     0.12800
H1444       H  0.97434267  0.29357202  0.79909046     0.12200
H1445       H  0.97485847  0.33765116  0.81381260     0.12500
H1446       H  0.97734450  0.27103982  0.77643105     0.15200
H1447       H  0.50666445  0.32023098  0.75364952     0.14000
H1448       H  0.48782870  0.42101876  0.80004863     0.11700
H1449       H  0.96377945  0.37514001  0.82369834     0.13700
C1450       C  0.02625617  0.10116074  0.70309897     0.19800
C1451       C  0.05112262  0.12453243  0.71222866    -0.18300
C1452       C  0.04774532  0.15113243  0.71810288    -0.10600
C1453       C  0.51305583  0.14848083  0.71677017     0.22000
C1454       C  0.50166517  0.13775860  0.70310641    -0.19900
C1455       C  0.50407645  0.11064835  0.69715923    -0.10800
C1456       C  0.50965865  0.17719762  0.72272384    -0.14900
C1457       C  0.52789797  0.19580387  0.73371737    -0.28800
C1458       C  0.03130618  0.07342618  0.69711709    -0.03000
C1459       C  0.50592757  0.04757197  0.68743650    -0.39600
H1460       H  0.07351427  0.12243021  0.71472813     0.13200
H1461       H  0.06796748  0.16902397  0.72480065     0.12800
H1462       H  0.49130636  0.15075714  0.69692310     0.12200
H1463       H  0.49613673  0.10417095  0.68642982     0.12500
H1464       H  0.49116088  0.18297132  0.71794397     0.15200
H1465       H  0.04296205  0.18856348  0.73935425     0.14000
H1466       H  0.05087803  0.06911193  0.70179553     0.11700
H1467       H  0.48731604  0.05245803  0.68227090     0.13700
C1468       C  0.01791279  0.40214138  0.70091320     0.19800
C1469       C  0.99541055  0.36690541  0.69946205    -0.18300
C1470       C  0.99872474  0.34301786  0.70776996    -0.10600
C1471       C  0.52132569  0.35115295  0.71864890     0.22000
C1472       C  0.54826932  0.38496139  0.71734000    -0.19900
C1473       C  0.54509364  0.40860179  0.70880864    -0.10800
C1474       C  0.52594776  0.32717933  0.72801309    -0.14900
C1475       C  0.50525836  0.29301448  0.72819515    -0.28800
C1476       C  0.01321568  0.42620227  0.69158795    -0.03000
C1477       C  0.52914281  0.45719427  0.69273204    -0.39600
H1478       H  0.97505314  0.35771845  0.69182268     0.13200
H1479       H  0.98078995  0.31629886  0.70609843     0.12800
H1480       H  0.57206783  0.39306614  0.72284491     0.12200
H1481       H  0.56683261  0.43408256  0.70778915     0.12500
H1482       H  0.54768478  0.33809734  0.73506597     0.15200
H1483       H  0.98465616  0.28359264  0.72166298     0.14000
H1484       H  0.99423721  0.41484037  0.68338442     0.11700
H1485       H  0.54645112  0.46902060  0.70141667     0.13700
C1486       C  0.52992514  0.40002249  0.55207631     0.19800
C1487       C  0.99839052  0.37070495  0.55426595    -0.18300
C1488       C  0.99842910  0.34790574  0.56426675    -0.10600
C1489       C  0.53305986  0.35556402  0.57230209     0.22000
C1490       C  0.56165020  0.38770723  0.56959299    -0.19900
C1491       C  0.56017834  0.40957337  0.55951136    -0.10800
C1492       C  0.53597041  0.33256702  0.58273810    -0.14900
C1493       C  0.51578975  0.29832694  0.58267059    -0.28800
C1494       C  0.02914515  0.42750607  0.54133239    -0.03000
C1495       C  0.50136366  0.42216324  0.53612281    -0.39600
H1496       H  0.97564943  0.36259729  0.54803444     0.13200
H1497       H  0.97534764  0.32356380  0.56569377     0.12800
H1498       H  0.58540875  0.39566870  0.57511024     0.12200
H1499       H  0.58281537  0.43401708  0.55747997     0.12500
H1500       H  0.55657117  0.34399328  0.59030205     0.15200
H1501       H  0.99119211  0.28699293  0.57417255     0.14000
H1502       H  0.05416249  0.44654015  0.53743163     0.11700
H1503       H  0.47649070  0.40396456  0.54034376     0.13700
C1504       C  0.50541013  0.09840727  0.55318482     0.19800
C1505       C  0.03284935  0.12236618  0.56094717    -0.18300
C1506       C  0.03177066  0.14646159  0.56981585    -0.10600
C1507       C  0.50372709  0.14790233  0.57091985     0.22000
C1508       C  0.47714172  0.12936663  0.56145029    -0.19900
C1509       C  0.47788085  0.10497161  0.55268410    -0.10800
C1510       C  0.50301285  0.17587702  0.57891406    -0.14900
C1511       C  0.52443749  0.19356386  0.58938964    -0.28800
C1512       C  0.00925318  0.07918240  0.54200852    -0.03000
C1513       C  0.98464442  0.05776675  0.53322860    -0.39600
H1514       H  0.05517594  0.11911914  0.56115930     0.13200
H1515       H  0.05356762  0.16127265  0.57643730     0.12800
H1516       H  0.45595845  0.13434380  0.56058373     0.12200
H1517       H  0.45721598  0.09224818  0.54534536     0.12500
H1518       H  0.48371646  0.18252337  0.57588017     0.15200
H1519       H  0.04320653  0.19154919  0.59164680     0.14000
H1520       H  0.03349045  0.07928791  0.54207255     0.11700
H1521       H  0.46007999  0.05248140  0.53379740     0.13700
C1522       C  0.02154056  0.15378556  0.62887774     0.19800
C1523       C  0.99498380  0.11994915  0.63060423    -0.18300
C1524       C  0.99898268  0.09713097  0.63930847    -0.10600
C1525       C  0.52399956  0.10316559  0.64869588     0.22000
C1526       C  0.55086534  0.13699199  0.64750893    -0.19900
C1527       C  0.54823099  0.16030974  0.63856362    -0.10800
C1528       C  0.52793168  0.07907868  0.65819707    -0.14900
C1529       C  0.51099061  0.04490686  0.65646448    -0.28800
C1530       C  0.01603000  0.17664569  0.61921337    -0.03000
C1531       C  0.53500799  0.20789914  0.62033677    -0.39600
H1532       H  0.97087473  0.11114646  0.62525284     0.13200
H1533       H  0.97754926  0.07155371  0.64061245     0.12800
H1534       H  0.57427202  0.14523981  0.65333206     0.12200
H1535       H  0.57006694  0.18571282  0.63764052     0.12500
H1536       H  0.54647694  0.08991953  0.66658318     0.15200
H1537       H  0.00050720  0.03816097  0.64586289     0.14000
H1538       H  0.99410705  0.16469931  0.61229316     0.11700
H1539       H  0.55465229  0.22050931  0.62816457     0.13700
C1540       C  0.53042408  0.35406066  0.63122111     0.19800
C1541       C  0.55529058  0.37771811  0.64028097    -0.18300
C1542       C  0.55119206  0.40368969  0.64639631    -0.10600
C1543       C  0.01732067  0.40618685  0.64411357     0.22000
C1544       C  0.00597772  0.39598034  0.63040661    -0.19900
C1545       C  0.01021972  0.37049482  0.62394121    -0.10800
C1546       C  0.01193124  0.43325594  0.65052426    -0.14900
C1547       C  0.53107839  0.45001344  0.66174370    -0.28800
C1548       C  0.53566150  0.32660427  0.62507690    -0.03000
C1549       C  0.51937652  0.30919143  0.61353924    -0.39600
H1550       H  0.57815086  0.37627713  0.64255056     0.13200
H1551       H  0.57135414  0.42182544  0.65304645     0.12800
H1552       H  0.99415130  0.40811948  0.62458987     0.12200
H1553       H  0.00207862  0.36436849  0.61321603     0.12500
H1554       H  0.99268824  0.43805993  0.64583910     0.15200
H1555       H  0.54825641  0.44375205  0.66732293     0.14000
H1556       H  0.55468718  0.32166111  0.62987629     0.11700
H1557       H  0.99412711  0.31327933  0.60882950     0.13700
C1558       C  0.62809430  0.10387073  0.46929435     0.19800
C1559       C  0.65263300  0.10070255  0.46135025    -0.18300
C1560       C  0.67505770  0.12739077  0.45251844    -0.10600
C1561       C  0.67355787  0.15789160  0.45169768     0.22000
C1562       C  0.65003285  0.16153338  0.46010616    -0.19900
C1563       C  0.62740890  0.13479902  0.46876014    -0.10800
C1564       C  0.69675687  0.18694902  0.44259632    -0.14900
C1565       C  0.70926093  0.18326729  0.43033853    -0.28800
C1566       C  0.60378179  0.07498903  0.47825446    -0.03000
C1567       C  0.57173504  0.06883921  0.48052456    -0.39600
H1568       H  0.65406407  0.07735625  0.46181539     0.13200
H1569       H  0.69374165  0.12427820  0.44651010     0.12800
H1570       H  0.64888783  0.18505061  0.45985774     0.12200
H1571       H  0.60968385  0.13858168  0.47515117     0.12500
H1572       H  0.70192587  0.21229856  0.44568357     0.15200
H1573       H  0.70174781  0.15781263  0.42659615     0.14000
H1574       H  0.61196220  0.05788665  0.48267239     0.11700
H1575       H  0.56267606  0.08440829  0.47535183     0.13700
C1576       C  0.84518498  0.33347226  0.44702629     0.19800
C1577       C  0.86681624  0.32947771  0.45648104    -0.18300
C1578       C  0.88956969  0.35671150  0.46474588    -0.10600
C1579       C  0.89115016  0.38867481  0.46375272     0.22000
C1580       C  0.86929796  0.39268895  0.45445838    -0.19900
C1581       C  0.84659118  0.36544765  0.44611699    -0.10800
C1582       C  0.91391904  0.41748671  0.47288052    -0.14900
C1583       C  0.94403860  0.42185077  0.47741882    -0.28800
C1584       C  0.82063207  0.30313377  0.43890661    -0.03000
C1585       C  0.80302666  0.30434765  0.42774701    -0.39600
H1586       H  0.86591211  0.30503557  0.45757651     0.13200
H1587       H  0.90519355  0.35235504  0.47216345     0.12800
H1588       H  0.86972543  0.41695657  0.45368986     0.12200
H1589       H  0.82978741  0.36950760  0.43929125     0.12500
H1590       H  0.90583396  0.43574768  0.47582630     0.15200
H1591       H  0.95346790  0.40513461  0.47382831     0.14000
H1592       H  0.81761651  0.27853561  0.44208096     0.11700
H1593       H  0.80749034  0.32873691  0.42364827     0.13700
C1594       C  0.60214734  0.09285372  0.36806300     0.19800
C1595       C  0.61636137  0.08908799  0.38055298    -0.18300
C1596       C  0.64214777  0.11753009  0.38743302    -0.10600
C1597       C  0.65486648  0.15075241  0.38187556     0.22000
C1598       C  0.64075109  0.15451470  0.36933565    -0.19900
C1599       C  0.61487062  0.12601605  0.36245751    -0.10800
C1600       C  0.68190577  0.18212742  0.38893140    -0.14900
C1601       C  0.70154320  0.18175535  0.39951681    -0.28800
C1602       C  0.57473460  0.06140577  0.36124438    -0.03000
C1603       C  0.55368171  0.06124189  0.35115794    -0.39600
H1604       H  0.60715860  0.06393332  0.38513548     0.13200
H1605       H  0.65135353  0.11307198  0.39719965     0.12800
H1606       H  0.64993318  0.17968312  0.36477400     0.12200
H1607       H  0.60543277  0.13025439  0.35269751     0.12500
H1608       H  0.68554145  0.20666056  0.38530478     0.15200
H1609       H  0.69858165  0.15767545  0.40321190     0.14000
H1610       H  0.57165929  0.03706502  0.36482595     0.11700
H1611       H  0.55632996  0.08515122  0.34731946     0.13700
C1612       C  0.85434485  0.34979555  0.38907967     0.19800
C1613       C  0.88851715  0.35760808  0.38764831    -0.18300
C1614       C  0.91170400  0.38569945  0.37963304    -0.10600
C1615       C  0.90125077  0.40697063  0.37291949     0.22000
C1616       C  0.86723307  0.39963839  0.37469674    -0.19900
C1617       C  0.84401460  0.37143383  0.38267683    -0.10800
C1618       C  0.92438533  0.43656007  0.36381247    -0.14900
C1619       C  0.95622426  0.44426337  0.35990267    -0.28800
C1620       C  0.83079472  0.31969206  0.39775614    -0.03000
C1621       C  0.79644152  0.30308745  0.39660095    -0.39600
H1622       H  0.89727806  0.34166656  0.39265786     0.13200
H1623       H  0.93760488  0.39035010  0.37882945     0.12800
H1624       H  0.85846516  0.41569967  0.36980378     0.12200
H1625       H  0.81820823  0.36697524  0.38392747     0.12500
H1626       H  0.91421162  0.45221377  0.35958619     0.15200
H1627       H  0.96833469  0.43044266  0.36402927     0.14000
H1628       H  0.84234913  0.30992555  0.40511736     0.11700
H1629       H  0.78439728  0.30991609  0.38832542     0.13700
C1630       C  0.77944562  0.76728713  0.40544041     0.03400
C1631       C  0.78303071  0.76802841  0.42014086     0.03300
C1632       C  0.76203015  0.73835016  0.42801033    -0.17200
C1633       C  0.73704321  0.70818889  0.42168445     0.03400
C1634       C  0.73290045  0.70779039  0.40701532     0.03300
C1635       C  0.75429761  0.73730702  0.39910879    -0.17200
H1636       H  0.75180588  0.73686925  0.38783776     0.05400
H1637       H  0.76462754  0.73892328  0.43926613     0.05400
C1638       C  0.52657587  0.78299735  0.60455793     0.03400
C1639       C  0.52236195  0.77739537  0.58997467     0.03300
C1640       C  0.52238309  0.74884317  0.58420633    -0.17200
C1641       C  0.52725122  0.72576793  0.59252535     0.03400
C1642       C  0.53205670  0.73160120  0.60707440     0.03300
C1643       C  0.53170413  0.76001966  0.61287867    -0.17200
H1644       H  0.53391991  0.76311938  0.62410504     0.05400
H1645       H  0.51994201  0.74543360  0.57298002     0.05400
In1646     In  0.00334822  0.49431565  0.50626277     1.36900
C1647       C  0.96258776  0.94837177  0.48817724     0.78700
O1648       O  0.52024023  0.53395742  0.49203843    -0.59800
O1649       O  0.55475640  0.51587733  0.49679405    -0.50700
C1650       C  0.99206773  0.53345608  0.52341151     0.71300
O1651       O  0.97019843  0.51461523  0.51451080    -0.45500
C1652       C  0.50686334  0.95352244  0.52589876     0.76000
O1653       O  0.95164454  0.96539199  0.49475353    -0.57400
O1654       O  0.53241034  0.97406875  0.51861406    -0.47500
O1655       O  0.99276716  0.95563738  0.49102977    -0.53800
C1656       C  0.54958512  0.53749280  0.49031396     0.86200
O1657       O  0.51973151  0.52709276  0.52385701    -0.55700
O1658       O  0.97795158  0.95467604  0.52278885    -0.59000
C1659       C  0.50476091  0.77067797  0.75605456     0.03400
C1660       C  0.50651260  0.77029558  0.74130459     0.03300
C1661       C  0.51207370  0.74552449  0.73471337    -0.17200
C1662       C  0.51568270  0.72082764  0.74252480     0.03400
C1663       C  0.51358685  0.72109077  0.75728039     0.03300
C1664       C  0.50847193  0.74610259  0.76381657    -0.17200
H1665       H  0.00470937  0.74867083  0.77410264     0.05400
H1666       H  0.51356234  0.74553922  0.72341513     0.05400
In1667     In  0.97407840  0.98209907  0.84148387     1.36900
C1668       C  0.96977353  0.92917339  0.82725682     0.78700
O1669       O  0.95920359  0.49458151  0.82153853    -0.59800
O1670       O  0.50151826  0.52877469  0.83200810    -0.50700
C1671       C  0.92870722  0.47397832  0.85536483     0.71300
O1672       O  0.95154586  0.00006885  0.85824638    -0.45500
C1673       C  0.53193444  0.48972303  0.85624007     0.76000
O1674       O  0.95367955  0.92567067  0.83845475    -0.57400
O1675       O  0.50179147  0.47080498  0.86055642    -0.47500
O1676       O  0.48601130  0.95845386  0.82311212    -0.53800
C1677       C  0.47735845  0.52183295  0.82360335     0.86200
O1678       O  0.92665143  0.45184660  0.84681708    -0.55700
O1679       O  0.52898405  0.00895830  0.84659624    -0.59000
C1680       C  0.71099255  0.49321712  0.94368780     0.03400
C1681       C  0.70819640  0.49350670  0.92893508     0.03300
C1682       C  0.73529287  0.49622974  0.92062022    -0.17200
C1683       C  0.76487834  0.49854633  0.92660441     0.03400
C1684       C  0.76765138  0.49846406  0.94131297     0.03300
C1685       C  0.74056724  0.49549683  0.94965379    -0.17200
H1686       H  0.74227128  0.49447849  0.96093030     0.05400
H1687       H  0.73320139  0.49623330  0.90935478     0.05400
C1688       C  0.77810417  0.77711977  0.25925971     0.03400
C1689       C  0.78538973  0.77198090  0.27314455     0.03300
C1690       C  0.76051199  0.74404912  0.28088552    -0.17200
C1691       C  0.72809317  0.72192910  0.27536516     0.03400
C1692       C  0.72023236  0.72815830  0.26168363     0.03300
C1693       C  0.74523568  0.75579334  0.25389986    -0.17200
H1694       H  0.73957154  0.75949590  0.24322961     0.05400
H1695       H  0.76644248  0.73943040  0.29138161     0.05400
C1696       C  0.97630790  0.97056773  0.34883908     0.03400
C1697       C  0.96834571  0.96884851  0.33446899     0.03300
C1698       C  0.98931021  0.99667119  0.32567307    -0.17200
C1699       C  0.52091846  0.52890675  0.33224691     0.03400
C1700       C  0.52719263  0.53106021  0.34680370     0.03300
C1701       C  0.00499081  0.99958571  0.35403670    -0.17200
H1702       H  0.01026795  0.00080345  0.36512771     0.05400
H1703       H  0.98311192  0.99588478  0.31469267     0.05400
In1704     In  0.99266332  0.50760777  0.17615532     1.36900
C1705       C  0.53473640  0.54229942  0.19807040     0.78700
O1706       O  0.94725569  0.00762143  0.19189177    -0.59800
O1707       O  0.95637025  0.96852367  0.18406470    -0.50700
C1708       C  0.95701843  0.52363928  0.15873728     0.71300
O1709       O  0.97308108  0.54231205  0.16897357    -0.45500
C1710       C  0.53533232  0.01964298  0.16035174     0.76000
O1711       O  0.51981184  0.55515600  0.19117976    -0.57400
O1712       O  0.51243619  0.99198364  0.16576035    -0.47500
O1713       O  0.52801108  0.51292198  0.19421094    -0.53800
C1714       C  0.93898393  0.97644116  0.19210642     0.86200
O1715       O  0.95340638  0.00840708  0.15852838    -0.55700
O1716       O  0.53838928  0.53955456  0.16265577    -0.59000
C1717       C  0.70209807  0.99823917  0.09050981     0.03400
C1718       C  0.69951201  0.99866598  0.07578562     0.03300
C1719       C  0.72519747  0.99816179  0.06752177    -0.17200
C1720       C  0.75382433  0.99846238  0.07354302     0.03400
C1721       C  0.75755371  0.00038084  0.08827185     0.03300
C1722       C  0.73134838  0.99980576  0.09654769    -0.17200
H1723       H  0.73292865  0.99869001  0.10781621     0.05400
H1724       H  0.72370970  0.99850226  0.05624285     0.05400
C1725       C  0.53334553  0.52939620  0.01367800     0.03400
C1726       C  0.52842838  0.52827991  0.99902037     0.03300
C1727       C  0.00185939  0.53297959  0.99382484    -0.17200
C1728       C  0.97610097  0.53172304  0.00257669     0.03400
C1729       C  0.97867621  0.52847554  0.01719021     0.03300
C1730       C  0.00653027  0.52622968  0.02257079    -0.17200
H1731       H  0.00881392  0.52518264  0.03380457     0.05400
H1732       H  0.00094308  0.53690130  0.98268140     0.05400
C1733       C  0.52496570  0.97209432  0.66802181     0.03400
C1734       C  0.52388801  0.97389143  0.68275592     0.03300
C1735       C  0.52067789  0.50687029  0.68838900    -0.17200
C1736       C  0.51507140  0.52902602  0.67972887     0.03400
C1737       C  0.51362645  0.52425514  0.66508290     0.03300
C1738       C  0.51767370  0.49771372  0.65950525    -0.17200
H1739       H  0.51779598  0.49528721  0.64824759     0.05400
H1740       H  0.52079354  0.50954655  0.69963990     0.05400
C1741       C  0.84692436  0.51301705  0.05470430     0.19800
C1742       C  0.88076772  0.54006525  0.05433303    -0.18300
C1743       C  0.90470194  0.53958387  0.04514767    -0.10600
C1744       C  0.89545390  0.51162441  0.03620320     0.22000
C1745       C  0.86162814  0.48447454  0.03657477    -0.19900
C1746       C  0.83763895  0.48494225  0.04578571    -0.10800
C1747       C  0.91033116  0.00698345  0.02731096    -0.14900
C1748       C  0.95419518  0.52929765  0.02741993    -0.28800
C1749       C  0.82254849  0.51517991  0.06464717    -0.03000
C1750       C  0.77809703  0.99528977  0.06389729    -0.39600
H1751       H  0.88865696  0.56199831  0.06105647     0.13200
H1752       H  0.93014063  0.56155983  0.04492751     0.12800
H1753       H  0.85378774  0.46266603  0.02978098     0.12200
H1754       H  0.81213328  0.46308248  0.04593971     0.12500
H1755       H  0.89965921  0.98922449  0.01866877     0.15200
H1756       H  0.96503347  0.54400797  0.03683871     0.14000
H1757       H  0.83320764  0.53469886  0.07266120     0.11700
H1758       H  0.76680022  0.97614958  0.05580906     0.13700
C1759       C  0.63126307  0.99687783  0.05029624     0.19800
C1760       C  0.64434359  0.50889376  0.03552576    -0.18300
C1761       C  0.60419611  0.00550454  0.02982079    -0.10600
C1762       C  0.57854350  0.00547821  0.03827816     0.22000
C1763       C  0.57917158  0.00041938  0.05272864    -0.19900
C1764       C  0.60525280  0.99627388  0.05870646    -0.10800
C1765       C  0.54959755  0.00845111  0.03236354    -0.14900
C1766       C  0.56385158  0.52963081  0.01983375    -0.28800
C1767       C  0.65919924  0.99218371  0.05628196    -0.03000
C1768       C  0.67120323  0.00226047  0.06930009    -0.39600
H1769       H  0.66414549  0.50961551  0.02883147     0.13200
H1770       H  0.61810607  0.51587790  0.01832148     0.12800
H1771       H  0.55932018  0.99960125  0.05942734     0.12200
H1772       H  0.60446978  0.99182636  0.06985745     0.12500
H1773       H  0.52576439  0.99643612  0.03824470     0.15200
H1774       H  0.58772768  0.54253687  0.01404306     0.14000
H1775       H  0.68399330  0.48784138  0.04905501     0.11700
H1776       H  0.66016482  0.01447412  0.07555084     0.13700
C1777       C  0.88409110  0.02063976  0.13051418     0.19800
C1778       C  0.87218403  0.48813395  0.12086592    -0.18300
C1779       C  0.83664251  0.99178874  0.11422173    -0.10600
C1780       C  0.83163716  0.02028416  0.11396242     0.22000
C1781       C  0.85344705  0.04909287  0.12188432    -0.19900
C1782       C  0.87952683  0.04946081  0.12999711    -0.10800
C1783       C  0.80271797  0.02010523  0.10633702    -0.14900
C1784       C  0.78692826  0.00000884  0.09528337    -0.28800
C1785       C  0.90983963  0.01838416  0.13962962    -0.03000
C1786       C  0.93527018  0.53140233  0.14962130    -0.39600
H1787       H  0.87644660  0.46657055  0.11965951     0.13200
H1788       H  0.83187743  0.46806566  0.10596120     0.12800
H1789       H  0.85011661  0.07137808  0.12188217     0.12200
H1790       H  0.89555963  0.07225896  0.13588907     0.12500
H1791       H  0.79456623  0.03798771  0.10977487     0.15200
H1792       H  0.80571300  0.48345494  0.09046772     0.14000
H1793       H  0.91924961  0.48763491  0.13743452     0.11700
H1794       H  0.92880265  0.06536291  0.15049519     0.13700
C1795       C  0.59345140  0.99837117  0.13783865     0.19800
C1796       C  0.58787820  0.97237709  0.12839544    -0.18300
C1797       C  0.61451881  0.97517344  0.11987632    -0.10600
C1798       C  0.65833897  0.50512170  0.12049247     0.22000
C1799       C  0.66193228  0.53113593  0.12951340    -0.19900
C1800       C  0.63429981  0.52718400  0.13760924    -0.10800
C1801       C  0.68806478  0.51041739  0.11187154    -0.14900
C1802       C  0.67278101  0.99303977  0.09951763    -0.28800
C1803       C  0.56470543  0.99488999  0.14671054     0.00900
C1804       C  0.56279742  0.02221421  0.15114916    -0.39600
H1805       H  0.56277296  0.94996239  0.12753681     0.13200
H1806       H  0.60927199  0.95440666  0.11284684     0.12800
H1807       H  0.68612880  0.55473621  0.13020067     0.12200
H1808       H  0.63818036  0.54766901  0.14456774     0.12500
H1809       H  0.71358821  0.52813959  0.11562244     0.15200
H1810       H  0.64725269  0.97747397  0.09535327     0.14000
H1811       H  0.54417309  0.96932831  0.14928149     0.11700
H1812       H  0.58593787  0.54382531  0.14572580     0.13700
C1813       C  0.82617805  0.84711524  0.23111717     0.19800
C1814       C  0.82484792  0.87623114  0.22670816    -0.18300
C1815       C  0.84942008  0.89975857  0.21744355    -0.10600
C1816       C  0.87586286  0.89450058  0.21230570     0.22000
C1817       C  0.87655638  0.86483794  0.21642635    -0.19900
C1818       C  0.85210159  0.84143287  0.22575312    -0.10800
C1819       C  0.90273856  0.91889608  0.20249506    -0.14900
C1820       C  0.91124067  0.95197435  0.20131418    -0.28800
C1821       C  0.79939599  0.82242377  0.24081905    -0.03000
C1822       C  0.80520083  0.80303267  0.24996061    -0.39600
H1823       H  0.80477166  0.88085511  0.23049158     0.13200
H1824       H  0.84709936  0.92158087  0.21418337     0.12800
H1825       H  0.89623861  0.85982721  0.21246811     0.12200
H1826       H  0.85321428  0.81863398  0.22852388     0.12500
H1827       H  0.91713045  0.90971047  0.19651353     0.15200
H1828       H  0.89853622  0.96227387  0.20768625     0.14000
H1829       H  0.77459971  0.82111109  0.24081651     0.11700
H1830       H  0.83068395  0.80624336  0.25068918     0.13700
C1831       C  0.59357870  0.61010228  0.22477659     0.19800
C1832       C  0.59344595  0.63735658  0.23183400    -0.18300
C1833       C  0.61942464  0.65723724  0.24128629    -0.10600
C1834       C  0.64630152  0.65037432  0.24377926     0.22000
C1835       C  0.64597843  0.62263074  0.23703390    -0.19900
C1836       C  0.62018545  0.60290927  0.22753745    -0.10800
C1837       C  0.67557080  0.67204999  0.25299139    -0.14900
C1838       C  0.68743041  0.70574376  0.25455916    -0.28800
C1839       C  0.56685322  0.59110156  0.21406182    -0.03000
C1840       C  0.55900565  0.55980648  0.20952230    -0.39600
H1841       H  0.57329486  0.64345476  0.22994287     0.13200
H1842       H  0.61842858  0.67793394  0.24658919     0.12800
H1843       H  0.66644431  0.61689693  0.23875557     0.12200
H1844       H  0.62201338  0.58287714  0.22208706     0.12500
H1845       H  0.68996726  0.66079323  0.25749040     0.15200
H1846       H  0.67566170  0.71813311  0.24882889     0.14000
H1847       H  0.55323508  0.60336012  0.20973106     0.11700
H1848       H  0.57092355  0.54625645  0.21416258     0.13700
C1849       C  0.60061178  0.59922834  0.31251023     0.19800
C1850       C  0.63596652  0.61495970  0.31492268    -0.18300
C1851       C  0.65916013  0.64202036  0.30646984    -0.10600
C1852       C  0.64751022  0.65388942  0.29525141     0.22000
C1853       C  0.61221170  0.63825403  0.29283177    -0.19900
C1854       C  0.58898635  0.61114869  0.30127692    -0.10800
C1855       C  0.67112002  0.68298777  0.28610524    -0.14900
C1856       C  0.70432219  0.69245879  0.28426689    -0.28800
C1857       C  0.57723218  0.57095876  0.32208977    -0.03000
C1858       C  0.54287845  0.55655192  0.32222492    -0.39600
H1859       H  0.64572898  0.60658703  0.32353524     0.13200
H1860       H  0.68602526  0.65393952  0.30901734     0.12800
H1861       H  0.60254209  0.64692111  0.28428693     0.12200
H1862       H  0.56216167  0.59982947  0.29882311     0.12500
H1863       H  0.66057214  0.69671191  0.28049277     0.15200
H1864       H  0.71539818  0.67933811  0.28991837     0.14000
H1865       H  0.58901044  0.56183141  0.32962852     0.11700
H1866       H  0.52981422  0.56355897  0.31450792     0.13700
C1867       C  0.90694105  0.89475807  0.31053210     0.19800
C1868       C  0.91151292  0.87482031  0.30044221    -0.18300
C1869       C  0.88334694  0.84597854  0.29486431    -0.10600
C1870       C  0.84993431  0.83684041  0.29915834     0.22000
C1871       C  0.84542987  0.85646406  0.30940372    -0.19900
C1872       C  0.87352087  0.88528579  0.31494630    -0.10800
C1873       C  0.81906533  0.80777735  0.29297846    -0.14900
C1874       C  0.81819519  0.79668719  0.27986896    -0.28800
C1875       C  0.93736629  0.92565689  0.31599188    -0.03000
C1876       C  0.93787458  0.93836699  0.32873344    -0.39600
H1877       H  0.93698221  0.88150683  0.29691050     0.13200
H1878       H  0.88789350  0.83093430  0.28726051     0.12800
H1879       H  0.81996721  0.85003802  0.31285067     0.12200
H1880       H  0.86877516  0.90048856  0.32239832     0.12500
H1881       H  0.79529622  0.79770195  0.29885955     0.15200
H1882       H  0.84118206  0.80880125  0.27353579     0.14000
H1883       H  0.96049890  0.93713652  0.30965448     0.11700
H1884       H  0.91576726  0.92487851  0.33546366     0.13700
C1885       C  0.83591735  0.01798714  0.96665504     0.19800
C1886       C  0.84358889  0.02651614  0.98077649    -0.18300
C1887       C  0.87184198  0.02659355  0.98695552    -0.10600
C1888       C  0.89334980  0.01862146  0.97900735     0.22000
C1889       C  0.88628504  0.01124193  0.96478018    -0.19900
C1890       C  0.85815812  0.01124256  0.95861724    -0.10800
C1891       C  0.92216962  0.01579774  0.98519619    -0.14900
C1892       C  0.94802706  0.53604003  0.99642186    -0.28800
C1893       C  0.80460867  0.01623977  0.96063522    -0.03000
C1894       C  0.79775342  0.49878055  0.94789709    -0.39600
H1895       H  0.82705833  0.03211728  0.98715908     0.13200
H1896       H  0.87589832  0.03175563  0.99801414     0.12800
H1897       H  0.90257111  0.00529921  0.95839450     0.12200
H1898       H  0.85411131  0.00603905  0.94755615     0.12500
H1899       H  0.94229221  0.50630119  0.97876830     0.15200
H1900       H  0.92949386  0.04595571  0.00303455     0.14000
H1901       H  0.79422569  0.03084887  0.96561331     0.11700
H1902       H  0.80742551  0.48370275  0.94287989     0.13700
C1903       C  0.62887990  0.00115722  0.96232671     0.19800
C1904       C  0.61935973  0.51848782  0.95718595    -0.18300
C1905       C  0.59436947  0.51799275  0.96605116    -0.10600
C1906       C  0.57843264  0.00223944  0.97991233     0.22000
C1907       C  0.59140501  0.98009844  0.98276407    -0.19900
C1908       C  0.61622763  0.97943314  0.97410688    -0.10800
C1909       C  0.55279226  0.00253764  0.98979364    -0.14900
C1910       C  0.55289753  0.52744887  0.98876660    -0.28800
C1911       C  0.66804100  0.50867702  0.95207337    -0.03000
C1912       C  0.68359124  0.48976670  0.95339085    -0.39600
H1913       H  0.62151944  0.52811097  0.94660962     0.13200
H1914       H  0.57763091  0.52675332  0.96193068     0.12800
H1915       H  0.58250575  0.96337507  0.99183735     0.12200
H1916       H  0.62523771  0.96189695  0.97680727     0.12500
H1917       H  0.54338800  0.98355823  0.99814857     0.15200
H1918       H  0.55988740  0.54487085  0.97993271     0.14000
H1919       H  0.67502816  0.52641795  0.94331911     0.11700
H1920       H  0.66842570  0.96951655  0.96403613     0.13700
C1921       C  0.81067789  0.98980007  0.89826280     0.19800
C1922       C  0.80408810  0.96493131  0.88811323    -0.18300
C1923       C  0.83067553  0.96589216  0.88018092    -0.10600
C1924       C  0.86472652  0.99201113  0.88220301     0.22000
C1925       C  0.87769099  0.51826213  0.88942170    -0.19900
C1926       C  0.84452712  0.01646273  0.90001998    -0.10800
C1927       C  0.90033871  0.49482963  0.87147509    -0.14900
C1928       C  0.89883293  0.46967899  0.86341237    -0.28800
C1929       C  0.78154056  0.98688076  0.90671929    -0.03000
C1930       C  0.79368269  0.50272918  0.91752965    -0.39600
H1931       H  0.77822040  0.94437217  0.88640521     0.13200
H1932       H  0.82401495  0.94612996  0.87249938     0.12800
H1933       H  0.90341278  0.53945743  0.89070934     0.12200
H1934       H  0.85768374  0.53801451  0.90472706     0.12500
H1935       H  0.92459375  0.51851267  0.87221854     0.15200
H1936       H  0.86819449  0.94724110  0.86338553     0.14000
H1937       H  0.75592429  0.96974740  0.90292768     0.11700
H1938       H  0.81931710  0.51752150  0.92166750     0.13700
C1939       C  0.64613689  0.49968023  0.90244141     0.19800
C1940       C  0.64987091  0.52414998  0.89237741    -0.18300
C1941       C  0.62209566  0.51963854  0.88429308    -0.10600
C1942       C  0.58989420  0.49020387  0.88599958     0.22000
C1943       C  0.58594285  0.46604817  0.89625049    -0.19900
C1944       C  0.61375548  0.47052463  0.90432841    -0.10800
C1945       C  0.55983867  0.48391235  0.87741545    -0.14900
C1946       C  0.56239004  0.49757807  0.86461994    -0.28800
C1947       C  0.67703226  0.50481680  0.91013121    -0.03000
C1948       C  0.67630579  0.48828959  0.92203113    -0.39600
H1949       H  0.66844950  0.02024460  0.88531526     0.13200
H1950       H  0.62122683  0.01253537  0.87077821     0.12800
H1951       H  0.56137939  0.44321034  0.89780513     0.12200
H1952       H  0.60982355  0.45063787  0.91172653     0.12500
H1953       H  0.53461221  0.46606612  0.88153409     0.15200
H1954       H  0.58720552  0.51410983  0.85991424     0.14000
H1955       H  0.69246584  0.01992701  0.90777459     0.11700
H1956       H  0.65212528  0.47139334  0.92711737     0.13700
C1957       C  0.49957190  0.60527746  0.80400243     0.19800
C1958       C  0.52981031  0.63225995  0.79840580    -0.18300
C1959       C  0.52865152  0.65628076  0.78938688    -0.10600
C1960       C  0.99754291  0.65751801  0.78457093     0.22000
C1961       C  0.96727795  0.63011380  0.78990569    -0.19900
C1962       C  0.96841276  0.60580899  0.79870156    -0.10800
C1963       C  0.99525397  0.68278342  0.77530822    -0.14900
C1964       C  0.51687236  0.69565906  0.76618883    -0.28800
C1965       C  0.50149209  0.57975293  0.81330642    -0.03000
C1966       C  0.47602114  0.54717021  0.81422054    -0.39600
H1967       H  0.55434097  0.63451726  0.80089357     0.13200
H1968       H  0.55243236  0.67691305  0.78530953     0.12800
H1969       H  0.94267250  0.62739212  0.78718367     0.12200
H1970       H  0.94461625  0.58512936  0.80274948     0.12500
H1971       H  0.97256072  0.68545394  0.77613966     0.15200
H1972       H  0.53698213  0.68972462  0.76388652     0.14000
H1973       H  0.52490021  0.58761852  0.81915047     0.11700
H1974       H  0.95674323  0.54070380  0.80505043     0.13700
C1975       C  0.48251108  0.87418334  0.79926827     0.19800
C1976       C  0.50620294  0.88277327  0.78830585    -0.18300
C1977       C  0.50813619  0.85739088  0.78065055    -0.10600
C1978       C  0.98288924  0.82317298  0.78273800     0.22000
C1979       C  0.95566875  0.81583173  0.79189837    -0.19900
C1980       C  0.95599249  0.84158065  0.80018994    -0.10800
C1981       C  0.98267503  0.79517846  0.77448507    -0.14900
C1982       C  0.50220791  0.79859012  0.76336588    -0.28800
C1983       C  0.48236806  0.90251815  0.80722687    -0.03000
C1984       C  0.96685399  0.89962262  0.81947711    -0.39600
H1985       H  0.52375301  0.90935369  0.78577279     0.13200
H1986       H  0.52757766  0.86538361  0.77262698     0.12800
H1987       H  0.93398024  0.79016740  0.79255217     0.12200
H1988       H  0.93411039  0.83509594  0.80682263     0.12500
H1989       H  0.96809492  0.76929121  0.77859750     0.15200
H1990       H  0.51217253  0.82289884  0.75793923     0.14000
H1991       H  0.49800272  0.92832244  0.80313069     0.11700
H1992       H  0.94944969  0.87429687  0.82355379     0.13700
C1993       C  0.02950720  0.60994979  0.70237293     0.19800
C1994       C  0.04789623  0.62531541  0.71457325    -0.18300
C1995       C  0.04535150  0.65184252  0.72102654    -0.10600
C1996       C  0.51243684  0.65355367  0.71635827     0.22000
C1997       C  0.48681616  0.62961321  0.70762985    -0.19900
C1998       C  0.49044648  0.60348762  0.70136653    -0.10800
C1999       C  0.50725973  0.68043567  0.72312282    -0.14900
C2000       C  0.52203254  0.69512972  0.73531790    -0.28800
C2001       C  0.03273881  0.58123124  0.69617765    -0.03000
C2002       C  0.50839594  0.55544077  0.68602615    -0.39600
H2003       H  0.06417541  0.61654759  0.71923700     0.13200
H2004       H  0.06017763  0.66262226  0.73036025     0.12800
H2005       H  0.46357684  0.63071508  0.70587453     0.12200
H2006       H  0.46958419  0.58493244  0.69510527     0.12500
H2007       H  0.48898927  0.68661539  0.71840695     0.15200
H2008       H  0.04495056  0.69491292  0.74087984     0.14000
H2009       H  0.05236199  0.57638156  0.70042816     0.11700
H2010       H  0.49085343  0.56148439  0.68061427     0.13700
C2011       C  0.01918131  0.89792593  0.69890682     0.19800
C2012       C  0.99024455  0.86614718  0.70176343    -0.18300
C2013       C  0.99316485  0.84118114  0.70943510    -0.10600
C2014       C  0.51690660  0.83872473  0.71412294     0.22000
C2015       C  0.54592718  0.86768689  0.70879360    -0.19900
C2016       C  0.54271758  0.89311340  0.70155776    -0.10800
C2017       C  0.52118363  0.81244597  0.72195511    -0.14900
C2018       C  0.50077240  0.79469509  0.73273831    -0.28800
C2019       C  0.01524963  0.92316929  0.69023726    -0.03000
C2020       C  0.52743164  0.94910025  0.69195775    -0.39600
H2021       H  0.96528985  0.86065398  0.69805731     0.13200
H2022       H  0.97040290  0.81682530  0.71141004     0.12800
H2023       H  0.57116861  0.87081187  0.71037250     0.12200
H2024       H  0.56550382  0.91511984  0.69749973     0.12500
H2025       H  0.54315332  0.80943090  0.71948967     0.15200
H2026       H  0.98395542  0.80438003  0.73399671     0.14000
H2027       H  0.99400812  0.91343795  0.68294645     0.11700
H2028       H  0.54717518  0.95897008  0.69990614     0.13700
C2029       C  0.53638797  0.90416755  0.54975435     0.19800
C2030       C  0.00980536  0.87495052  0.55080762    -0.18300
C2031       C  0.01093177  0.85158978  0.56013127    -0.10600
C2032       C  0.53790527  0.85820342  0.56958822     0.22000
C2033       C  0.56731655  0.88973067  0.56682549    -0.19900
C2034       C  0.56665933  0.91235320  0.55689847    -0.10800
C2035       C  0.53971829  0.83471604  0.58008012    -0.14900
C2036       C  0.51821575  0.80072568  0.58017512    -0.28800
C2037       C  0.03654400  0.93379089  0.53997136    -0.03000
C2038       C  0.50788641  0.93031799  0.53648920    -0.39600
H2039       H  0.98753487  0.86630925  0.54422124     0.13200
H2040       H  0.98885559  0.82629735  0.56064494     0.12800
H2041       H  0.59096518  0.89672527  0.57226607     0.12200
H2042       H  0.58973103  0.93646114  0.55490536     0.12500
H2043       H  0.56066247  0.84543343  0.58750843     0.15200
H2044       H  0.00053711  0.79130601  0.57146089     0.14000
H2045       H  0.06071635  0.95407768  0.53589278     0.11700
H2046       H  0.48423724  0.91412348  0.54208984     0.13700
C2047       C  0.50979552  0.59794598  0.55171621     0.19800
C2048       C  0.03687164  0.62427018  0.55841020    -0.18300
C2049       C  0.03679149  0.65013561  0.56637500    -0.10600
C2050       C  0.50983050  0.65103925  0.56754507     0.22000
C2051       C  0.48582876  0.63479451  0.55689703    -0.19900
C2052       C  0.48581297  0.60873080  0.54904646    -0.10800
C2053       C  0.50909357  0.67963160  0.57503024    -0.14900
C2054       C  0.52950958  0.69718261  0.58575688    -0.28800
C2055       C  0.00940809  0.57451432  0.54259413    -0.03000
C2056       C  0.98619137  0.55572945  0.53286922    -0.39600
H2057       H  0.06056452  0.62369086  0.55727822     0.13200
H2058       H  0.06059303  0.66907464  0.57098204     0.12800
H2059       H  0.46724096  0.64271981  0.55444195     0.12200
H2060       H  0.46758653  0.59805829  0.54063888     0.12500
H2061       H  0.49015298  0.68637460  0.57156831     0.15200
H2062       H  0.04654024  0.69130992  0.58921916     0.14000
H2063       H  0.03242773  0.57243427  0.54349443     0.11700
H2064       H  0.46251341  0.54925786  0.53415616     0.13700
C2065       C  0.02221327  0.65491084  0.62655463     0.19800
C2066       C  0.99360969  0.62279878  0.62932988    -0.18300
C2067       C  0.99593838  0.59970739  0.63849150    -0.10600
C2068       C  0.52481097  0.60432921  0.64529454     0.22000
C2069       C  0.55261115  0.63743200  0.64346689    -0.19900
C2070       C  0.55060953  0.66044043  0.63416542    -0.10800
C2071       C  0.52800666  0.58100198  0.65545709    -0.14900
C2072       C  0.50862448  0.54673173  0.65508992    -0.28800
C2073       C  0.01851426  0.67843077  0.61664359    -0.03000
C2074       C  0.53718036  0.70867117  0.61676390    -0.39600
H2075       H  0.96922736  0.61567996  0.62450346     0.13200
H2076       H  0.97308161  0.57560604  0.64065361     0.12800
H2077       H  0.57614769  0.64542755  0.64916378     0.12200
H2078       H  0.57300198  0.68533409  0.63280744     0.12500
H2079       H  0.54809688  0.59239082  0.66324480     0.15200
H2080       H  0.99135588  0.53848246  0.64677830     0.14000
H2081       H  0.99632536  0.66753040  0.60983908     0.11700
H2082       H  0.55597095  0.72075072  0.62495135     0.13700
C2083       C  0.53350691  0.85376073  0.62959214     0.19800
C2084       C  0.53587571  0.85755523  0.64415853    -0.18300
C2085       C  0.53155011  0.88302672  0.65059622    -0.10600
C2086       C  0.02830877  0.90882345  0.64182077     0.22000
C2087       C  0.02329296  0.90375754  0.62737868    -0.19900
C2088       C  0.02854700  0.87920804  0.62066635    -0.10800
C2089       C  0.02214495  0.93503406  0.64847828    -0.14900
C2090       C  0.53246968  0.94670433  0.66129116    -0.28800
C2091       C  0.53799949  0.82627029  0.62315110    -0.03000
C2092       C  0.52269237  0.81089699  0.61113153    -0.39600
H2093       H  0.54044410  0.84031913  0.65059701     0.13200
H2094       H  0.53229856  0.88434243  0.66188588     0.12800
H2095       H  0.01569111  0.91918566  0.62123024     0.12200
H2096       H  0.02538276  0.87679595  0.60945152     0.12500
H2097       H  0.00468212  0.94155142  0.64324618     0.15200
H2098       H  0.54866305  0.93918646  0.66692640     0.14000
H2099       H  0.55387019  0.81818470  0.62869486     0.11700
H2100       H  0.00938494  0.82213102  0.60510521     0.13700
C2101       C  0.63079127  0.59706787  0.46912296     0.19800
C2102       C  0.65174476  0.59187167  0.45970906    -0.18300
C2103       C  0.67503693  0.61865080  0.45108745    -0.10600
C2104       C  0.67803461  0.65133024  0.45186674     0.22000
C2105       C  0.65799203  0.65670774  0.46168761    -0.19900
C2106       C  0.63460446  0.62996610  0.47018351    -0.10800
C2107       C  0.70200018  0.68076756  0.44293814    -0.14900
C2108       C  0.71472605  0.67775415  0.43059688    -0.28800
C2109       C  0.60543745  0.56811210  0.47786870    -0.03000
C2110       C  0.57534149  0.56546345  0.48155282    -0.39600
H2111       H  0.64970809  0.56690477  0.45887789     0.13200
H2112       H  0.69079367  0.61368000  0.44399527     0.12800
H2113       H  0.66018116  0.68170798  0.46270750     0.12200
H2114       H  0.61978231  0.63523709  0.47768091     0.12500
H2115       H  0.70763931  0.70609037  0.44627497     0.15200
H2116       H  0.70730843  0.65253582  0.42664206     0.14000
H2117       H  0.61093604  0.54794152  0.48080873     0.11700
H2118       H  0.56871387  0.58426182  0.47777543     0.13700
C2119       C  0.84726468  0.83058774  0.44703768     0.19800
C2120       C  0.87140647  0.82879904  0.45572279    -0.18300
C2121       C  0.89242208  0.85609728  0.46430823    -0.10600
C2122       C  0.88976415  0.88598634  0.46441594     0.22000
C2123       C  0.86538661  0.88776597  0.45583698    -0.19900
C2124       C  0.84436990  0.86039069  0.44715705    -0.10800
C2125       C  0.91093860  0.91475085  0.47390565    -0.14900
C2126       C  0.94214198  0.92145871  0.47808712    -0.28800
C2127       C  0.82426568  0.79984882  0.43883580    -0.03000
C2128       C  0.80659434  0.80011328  0.42756097    -0.39600
H2129       H  0.87375429  0.80594351  0.45600236     0.13200
H2130       H  0.90997839  0.85319722  0.47114651     0.12800
H2131       H  0.86250724  0.91031389  0.45590746     0.12200
H2132       H  0.82535874  0.86234456  0.44091768     0.12500
H2133       H  0.90083560  0.93100749  0.47738342     0.15200
H2134       H  0.95349121  0.90688852  0.47396226     0.14000
H2135       H  0.82256569  0.77581890  0.44204154     0.11700
H2136       H  0.81011492  0.82413620  0.42339036     0.13700
C2137       C  0.60247452  0.59196648  0.37034335     0.19800
C2138       C  0.61061212  0.59035947  0.38436747    -0.18300
C2139       C  0.63800023  0.61843933  0.39067371    -0.10600
C2140       C  0.65816182  0.64862499  0.38297176     0.22000
C2141       C  0.64997902  0.65031769  0.36896065    -0.19900
C2142       C  0.62259511  0.62218107  0.36263509    -0.10800
C2143       C  0.68698067  0.67914175  0.38940680    -0.14900
C2144       C  0.70562745  0.67701932  0.39995373    -0.28800
C2145       C  0.57360677  0.56123024  0.36405206    -0.03000
C2146       C  0.55552000  0.56244706  0.35308530    -0.39600
H2147       H  0.59545859  0.56738670  0.39051585     0.13200
H2148       H  0.64286148  0.61659893  0.40162802     0.12800
H2149       H  0.66513329  0.67333627  0.36284114     0.12200
H2150       H  0.61776202  0.62403659  0.35168225     0.12500
H2151       H  0.69286400  0.70405351  0.38531213     0.15200
H2152       H  0.70006562  0.65203883  0.40374159     0.14000
H2153       H  0.56688134  0.53666495  0.36877938     0.11700
H2154       H  0.56192812  0.58687761  0.34834612     0.13700
C2155       C  0.85750965  0.84543795  0.38829695     0.19800
C2156       C  0.89255435  0.85613722  0.38751007    -0.18300
C2157       C  0.91468053  0.88438219  0.37929666    -0.10600
C2158       C  0.90220632  0.90278760  0.37166272     0.22000
C2159       C  0.86722806  0.89241355  0.37265975    -0.19900
C2160       C  0.84510699  0.86414073  0.38086499    -0.10800
C2161       C  0.92440417  0.93282772  0.36259037    -0.14900
C2162       C  0.95646170  0.94160633  0.35859754    -0.28800
C2163       C  0.83519227  0.81567212  0.39743091    -0.03000
C2164       C  0.80089941  0.79721434  0.39624083    -0.39600
H2165       H  0.90290600  0.84253272  0.39328364     0.13200
H2166       H  0.94144653  0.89168132  0.37917245     0.12800
H2167       H  0.85689736  0.90624350  0.36703620     0.12200
H2168       H  0.81852524  0.85752286  0.38152499     0.12500
H2169       H  0.91333994  0.94777531  0.35845391     0.15200
H2170       H  0.96908017  0.92803412  0.36247151     0.14000
H2171       H  0.84765953  0.80787033  0.40519277     0.11700
H2172       H  0.78822449  0.80214269  0.38762959     0.13700
loop_ 
_geom_bond_atom_site_label_1 
_geom_bond_atom_site_label_2 
_geom_bond_distance 
_geom_bond_site_symmetry_2 
_ccdc_geom_bond_type 
C1            C2   1.416       .  A
C1            C6   1.403       .  A
C1          C535   1.482       .  S
C2            C3   1.406       .  A
C2          C499   1.491       .  S
C3            C4   1.403       .  A
C3            H8   1.083       .  S
C4            C5   1.413       .  A
C4          C479   1.485       .  S
C5            C6   1.406       .  A
C5          C515   1.489       .  S
C6            H7   1.084       .  S
C9           C10   1.415       .  A
C9           C14   1.408       .  A
C9          C463   1.489       .  S
C10          C11   1.399       .  A
C10         C407   1.486       .  S
C11          C12   1.405       .  A
C11          H16   1.084       .  S
C12          C13   1.416       .  A
C12         C425   1.488       .  S
C13          C14   1.405       .  A
C13         C445   1.486       .  S
C14          H15   1.083       .  S
In17         O22   2.250   1_565  S
In17       O1105   2.228   1_565  S
In17       O1106   2.253   1_565  S
In17       O1114   2.235   1_565  S
In17        O567   2.259       .  S
In17       O1654   2.247       .  S
In17        O569   2.233       .  S
In17        O572   2.220       .  S
C18         C497   1.472       .  S
C18          O24   1.264       .  A
C18          O26   1.260       .  A
O19       In1103   2.222   1_545  S
O19          C27   1.259       .  A
O20       In1103   2.247   1_545  S
O20          C27   1.265       .  A
C21         C427   1.476       .  S
C21          O22   1.264       .  A
C21        O1114   1.262       .  A
C23         C409   1.472       .  S
C23          O25   1.267       .  A
C23        O1115   1.260   1_455  A
O24        In560   2.258       .  S
O25       In1646   2.253       .  S
O26        In560   2.231       .  S
C27         C481   1.467       .  S
O28       In1103   2.227   1_545  S
O28        C1107   1.262   1_455  A
O29        In560   2.229       .  S
O29        C1109   1.260       .  A
C30          C31   1.416       .  A
C30          C35   1.405       .  A
C30         C353   1.493       .  S
C31          C32   1.405       .  A
C31         C389   1.482       .  S
C32          C33   1.409       .  A
C32          H37   1.084       .  S
C33          C34   1.415       .  A
C33         C371   1.493       .  S
C34          C35   1.403       .  A
C34         C335   1.487       .  S
C35        H1122   1.083       .  S
H36        C1121   1.082       .  S
In38         O43   2.240       .  S
In38         O45   2.255       .  S
In38        O583   2.235       .  S
In38       O1670   2.251       .  S
In38        O592   2.243       .  S
In38       O1675   2.246       .  S
In38       O1133   2.242       .  S
In38       O1136   2.250       .  S
C39         C355   1.473       .  S
C39          O45   1.259       .  A
C39        O1133   1.259       .  A
O40        In581   2.239       .  S
O40        C1134   1.259   1_565  A
O41       In1667   2.249   1_545  S
O41          C48   1.261       .  A
C42         C299   1.470       .  S
C42          O49   1.259       .  A
C42         O586   1.262       .  A
O43         C585   1.261       .  A
C44         C317   1.473   1_565  S
C44          O46   1.260   1_455  A
C44         O593   1.258   1_565  A
O46       In1667   2.248       .  S
O47       In1124   2.247       .  S
O47        C1125   1.260       .  A
C48         C337   1.471       .  S
C48        O1126   1.259   1_545  A
O49        In581   2.234       .  S
O50       In1124   2.251   1_455  S
O50         C587   1.259       .  A
C51          C52   1.416       .  A
C51          C56   1.403       .  A
C51         C283   1.487       .  S
C52          C53   1.407       .  A
C52         C319   1.486       .  S
C53          C54   1.406       .  A
C53          H58   1.082       .  S
C54          C55   1.414       .  A
C54         C301   1.492       .  S
C55          C56   1.405       .  A
C55         C265   1.486       .  S
C56          H57   1.084       .  S
C59          C60   1.414       .  A
C59          C64   1.404       .  A
C59         C193   1.491       .  S
C60          C61   1.406       .  A
C60         C245   1.487       .  S
C61          C62   1.405       .  A
C61          H66   1.084       .  S
C62          C63   1.419       .  A
C62         C227   1.488       .  S
C63          C64   1.401       .  A
C63         C209   1.479       .  S
C64          H65   1.084       .  S
C67          C68   1.417       .  A
C67          C72   1.400       .  A
C67         C533   1.486       .  S
C68          C69   1.408       .  A
C68         C247   1.489       .  S
C69        C1699   1.402       .  A
C69          H74   1.083       .  S
C70          C71   1.417       .  A
C70        C1698   1.404   1_445  A
C70         C229   1.489       .  S
C71        C1701   1.407   1_545  A
C71         C517   1.486       .  S
C72        C1700   1.406       .  A
C72          H73   1.084       .  S
In75         O80   2.252       .  S
In75        O620   2.223       .  S
In75        O621   2.244   1_545  S
In75        O629   2.231       .  S
In75       O1168   2.248       .  S
In75       O1712   2.257   1_545  S
In75       O1170   2.226       .  S
In75       O1173   2.226       .  S
C76         C211   1.471       .  S
C76          O82   1.267       .  A
C76          O84   1.260       .  A
O77        In618   2.228       .  S
O77          C85   1.258       .  A
O78        In618   2.257       .  S
O78          C85   1.264       .  A
C79         C157   1.476       .  S
C79          O80   1.264       .  A
C79         O629   1.262       .  A
C81         C175   1.472       .  S
C81          O83   1.265       .  A
C81         O630   1.259       .  A
O82       In1161   2.253   1_455  S
O83       In1704   2.255   1_455  S
O84       In1161   2.223   1_455  S
C85         C191   1.468       .  S
O86        In618   2.235       .  S
O86         C622   1.264       .  A
O87       In1161   2.231   1_455  S
O87         C624   1.261       .  A
C88          C89   1.415       .  A
C88          C93   1.405       .  A
C88         C173   1.488       .  S
C89          C90   1.408       .  A
C89         C139   1.495       .  S
C90          C91   1.404       .  A
C90          H95   1.082       .  S
C91          C92   1.416       .  A
C91         C121   1.486       .  S
C92          C93   1.406       .  A
C92         C155   1.488       .  S
C93          H94   1.083       .  S
C96          C97   1.417       .  A
C96        C1187   1.409   1_455  A
C96         C137   1.490       .  S
C97        C1184   1.403   1_454  A
C97         C281   1.489   1_554  S
C98          C99   1.408   1_556  A
C98        C1183   1.404       .  A
C98         H103   1.084       .  S
C99         C100   1.415       .  A
C99         C263   1.489   1_554  S
C100        C101   1.402       .  A
C100        C119   1.487       .  S
C101       C1182   1.409       .  A
C101        H102   1.083       .  S
C104        C105   1.419       .  A
C104        C652   1.406       .  A
C104        C461   1.488       .  S
C105        C649   1.406       .  A
C105        C391   1.492       .  S
C106        C107   1.408       .  A
C106        C648   1.403   1_545  A
C106        H111   1.084       .  S
C107        C108   1.416       .  A
C107        C373   1.488       .  S
C108        C109   1.401       .  A
C108        C443   1.485       .  S
C109        C647   1.405   1_545  A
C109        H110   1.083   1_545  S
C112        C113   1.404       .  A
C112        C117   1.408   1_545  A
C112        C120   1.489       .  S
C113        C114   1.401       .  A
C113        H122   1.083       .  S
C114        C115   1.408       .  A
C114        H123   1.082       .  S
C115        C116   1.403   1_545  A
C115        C661   1.488       .  S
C116        C117   1.398       .  A
C116        H124   1.083       .  S
C117        H125   1.082       .  S
C118        C658   1.487       .  S
C118        H126   1.087       .  S
C118        C662   1.346       .  D
C119        H127   1.085       .  S
C119        C661   1.346       .  D
C120        H128   1.087       .  S
C120        C664   1.347   1_545  D
C121        H129   1.085       .  S
C121        C663   1.346       .  D
C130        C135   1.408       .  A
C130        C674   1.403       .  A
C130        C138   1.487       .  S
C131        C673   1.403       .  A
C131        C675   1.400   1_565  A
C131        H140   1.083       .  S
C132        C133   1.407       .  A
C132        C674   1.399       .  A
C132        H684   1.082       .  S
C133        C134   1.403       .  A
C133        C136   1.485       .  S
C134        C135   1.399       .  A
C134        H142   1.083       .  S
C135        H143   1.082       .  S
C136        H144   1.085       .  S
C136        C680   1.348       .  D
C137        H145   1.084       .  S
C137        C679   1.347       .  D
C138        H689   1.085       .  S
C138        C139   1.347       .  D
C139        H147   1.085       .  S
H141        C675   1.082       .  S
H146        C681   1.084       .  S
C148        C153   1.409       .  A
C148        C692   1.406       .  A
C148        C156   1.493       .  S
C149        C691   1.405   1_565  A
C149        C693   1.399       .  A
C149        H158   1.084       .  S
C150        C151   1.407       .  A
C150        C692   1.400       .  A
C150        H702   1.081       .  S
C151        C152   1.403       .  A
C151        C154   1.487       .  S
C152        C153   1.397       .  A
C152        H160   1.083       .  S
C153        H161   1.079       .  S
C154        H162   1.087       .  S
C154        C155   1.347       .  D
C155        H706   1.084       .  S
C156        H707   1.087       .  S
C156        C700   1.349       .  D
C157        H708   1.083       .  S
C157        C699   1.348       .  D
H159        C693   1.081       .  S
H163        C698   1.084       .  S
H164        C699   1.088   1_565  S
H165        C700   1.082       .  S
C166        C167   1.402       .  A
C166        C714   1.408       .  A
C166        C174   1.485       .  S
C167        C168   1.398       .  A
C167        H176   1.083       .  S
C168        C712   1.408       .  A
C168        H177   1.082       .  S
C169        C170   1.402       .  A
C169        C711   1.407   1_545  A
C169        C172   1.486       .  S
C170        C171   1.398       .  A
C170        H178   1.084       .  S
C171        C709   1.409       .  A
C171        H179   1.081       .  S
C172        H180   1.087       .  S
C172        C716   1.345   1_545  D
C173        H181   1.085       .  S
C173        C715   1.345       .  D
C174        H182   1.087       .  S
C174        C175   1.343       .  D
C175        H726   1.085       .  S
H183        C718   1.085       .  S
C184        C185   1.402       .  A
C184        C189   1.406       .  A
C184        C192   1.479       .  S
C185        C186   1.398       .  A
C185        H194   1.083       .  S
C186        C187   1.405       .  A
C186        H195   1.083       .  S
C187        C188   1.401       .  A
C187        C190   1.478       .  S
C188        C189   1.398       .  A
C188        H196   1.083       .  S
C189        H197   1.083       .  S
C190        H198   1.087       .  S
C190        C191   1.340       .  D
C191        H199   1.087       .  S
C192        H200   1.086       .  S
C192        C193   1.346       .  D
C193        H201   1.085       .  S
C202        C203   1.402       .  A
C202        C207   1.409       .  A
C202        C210   1.486       .  S
C203        C204   1.398       .  A
C203        H212   1.083       .  S
C204        C205   1.408       .  A
C204        H213   1.082       .  S
C205        C206   1.401       .  A
C205        C208   1.484       .  S
C206        C207   1.397       .  A
C206        H214   1.084       .  S
C207        H215   1.081       .  S
C208        H216   1.087       .  S
C208        C209   1.343       .  D
C209        H217   1.086       .  S
C210        H218   1.087       .  S
C210        C211   1.342       .  D
C211        H219   1.085       .  S
C220        C221   1.402       .  A
C220        C225   1.407       .  A
C220        C228   1.487       .  S
C221        C222   1.398       .  A
C221        H230   1.084       .  S
C222        C223   1.410       .  A
C222        H231   1.080       .  S
C223        C224   1.404       .  A
C223        C226   1.491       .  S
C224        C225   1.400       .  A
C224        H232   1.083       .  S
C225        H233   1.082       .  S
C226        H234   1.086       .  S
C226        C227   1.347       .  D
C227        H235   1.084       .  S
C228        H236   1.087       .  S
C228        C229   1.347       .  D
C229        H237   1.085       .  S
C238        C239   1.401       .  A
C238        C243   1.408       .  A
C238        C246   1.482       .  S
C239        C240   1.397       .  A
C239        H248   1.083       .  S
C240        C241   1.407       .  A
C240        H249   1.082       .  S
C241        C242   1.403       .  A
C241        C244   1.483       .  S
C242        C243   1.399       .  A
C242        H250   1.083       .  S
C243        H251   1.083       .  S
C244        H252   1.086       .  S
C244        C245   1.345       .  D
C245        H253   1.085       .  S
C246        H254   1.085       .  S
C246        C247   1.345       .  D
C247        H255   1.085       .  S
C256        C257   1.403       .  A
C256        C261   1.407       .  A
C256        C264   1.487       .  S
C257        C258   1.400       .  A
C257        H266   1.083       .  S
C258        C259   1.409       .  A
C258        H267   1.081       .  S
C259        C260   1.404       .  A
C259        C262   1.489       .  S
C260        C261   1.397       .  A
C260        H268   1.083       .  S
C261        H269   1.082       .  S
C262        H813   1.087       .  S
C262        C806   1.347       .  D
C263        H814   1.083   1_556  S
C263        C805   1.346       .  D
C264        H272   1.086       .  S
C264        C808   1.346       .  D
C265        H273   1.084       .  S
C265        C807   1.346       .  D
H270        C805   1.087   1_565  S
H271        C806   1.083   1_554  S
C274        C279   1.407       .  A
C274        C818   1.402       .  A
C274        C825   1.484       .  S
C275        C276   1.399       .  A
C275        C817   1.404   1_545  A
C275        H284   1.084       .  S
C276        C820   1.408   1_545  A
C276        H285   1.081       .  S
C277        C278   1.403       .  A
C277        C819   1.409       .  A
C277        C280   1.487       .  S
C278        C279   1.398       .  A
C278        H286   1.083       .  S
C279        H287   1.082       .  S
C280        H288   1.087       .  S
C280        C824   1.345       .  D
C281        H289   1.084       .  S
C281        C823   1.347   1_545  D
C282        C817   1.489       .  S
C282        H290   1.087   1_565  S
C282        C283   1.347       .  D
C283        H834   1.085       .  S
H291        C826   1.086       .  S
C292        C293   1.401       .  A
C292        C297   1.405       .  A
C292        C300   1.481       .  S
C293        C294   1.397       .  A
C293        H302   1.083       .  S
C294        C295   1.409       .  A
C294        H303   1.079       .  S
C295        C839   1.405       .  A
C295        C841   1.489       .  S
C296        C838   1.402   1_545  A
C296        C840   1.399       .  A
C296        H304   1.083       .  S
C297        C839   1.397       .  A
C297        H848   1.082       .  S
C298        C838   1.486       .  S
C298        H306   1.087   1_565  S
C298        C299   1.344       .  D
C299        H850   1.084       .  S
C300        H308   1.087       .  S
C300        C844   1.344       .  D
C301        H309   1.081   1_565  S
C301        C843   1.347       .  D
H305        C840   1.079       .  S
H307        C842   1.082       .  S
C310        C311   1.404   1_565  A
C310        C315   1.408       .  A
C310        C318   1.487       .  S
C311        C312   1.397       .  A
C311        H863   1.084       .  S
C312        C313   1.408   1_545  A
C312        H864   1.081       .  S
C313        C314   1.403       .  A
C313        C316   1.487       .  S
C314        C315   1.397       .  A
C314        H322   1.083       .  S
C315        H323   1.080       .  S
C316        H324   1.087       .  S
C316        C317   1.345   1_565  D
C317        H325   1.084       .  S
C318        H869   1.087   1_565  S
C318        C319   1.347       .  D
C319        H327   1.083       .  S
H320        C854   1.083       .  S
H321        C855   1.081       .  S
H326        C861   1.086       .  S
C328        C329   1.403       .  A
C328       C1419   1.406   1_455  A
C328        C336   1.483       .  S
C329        C330   1.399       .  A
C329        H338   1.083       .  S
C330       C1417   1.407       .  A
C330        H339   1.082       .  S
C331        C332   1.402       .  A
C331       C1416   1.407       .  A
C331        C334   1.481       .  S
C332        C333   1.395       .  A
C332        H340   1.083       .  S
C333       C1414   1.406       .  A
C333        H341   1.082       .  S
C334        H342   1.087       .  S
C334       C1421   1.345       .  D
C335        H343   1.084       .  S
C335       C1420   1.346       .  D
C336        H344   1.087       .  S
C336        C337   1.344   1_455  D
C337       H1431   1.085       .  S
H345       C1423   1.085       .  S
C346        C347   1.404       .  A
C346       C1437   1.408       .  A
C346        C354   1.489       .  S
C347        C348   1.398       .  A
C347        H356   1.083   1_655  S
C348       C1435   1.407       .  A
C348        H357   1.080   1_655  S
C349        C350   1.405       .  A
C349       C1434   1.408       .  A
C349        C352   1.490       .  S
C350        C351   1.399       .  A
C350        H358   1.084       .  S
C351       C1432   1.408       .  A
C351        H359   1.080       .  S
C352        H360   1.085       .  S
C352       C1439   1.350       .  D
C353        H361   1.080       .  S
C353       C1438   1.350   1_455  D
C354        H362   1.087   1_655  S
C354       C1441   1.346       .  D
C355        H363   1.083       .  S
C355       C1440   1.345       .  D
C364        C365   1.402       .  A
C364       C1455   1.410       .  A
C364        C372   1.489       .  S
C365        C366   1.397       .  A
C365        H374   1.083       .  S
C366       C1453   1.408       .  A
C366        H375   1.081       .  S
C367        C368   1.403   1_455  A
C367       C1452   1.408       .  A
C367        C370   1.489       .  S
C368        C369   1.399       .  A
C368        H376   1.083       .  S
C369       C1450   1.409   1_655  A
C369        H377   1.080       .  S
C370        H378   1.086   1_455  S
C370        C371   1.348       .  D
C371       H1465   1.081       .  S
C372        H380   1.087       .  S
C372       C1459   1.345       .  D
C373        H381   1.083   1_455  S
C373       C1458   1.346       .  D
H379       C1457   1.082       .  S
C382        C383   1.403       .  A
C382       C1473   1.407       .  A
C382        C390   1.487       .  S
C383        C384   1.399       .  A
C383        H392   1.083       .  S
C384       C1471   1.409       .  A
C384        H393   1.080       .  S
C385        C386   1.405       .  A
C385       C1470   1.409   1_455  A
C385        C388   1.494       .  S
C386        C387   1.400       .  A
C386        H394   1.084       .  S
C387       C1468   1.408       .  A
C387        H395   1.080       .  S
C388        H396   1.088       .  S
C388        C389   1.347       .  D
C389       H1483   1.082   1_455  S
C390        H398   1.087       .  S
C390       C1477   1.347       .  D
C391        H399   1.083       .  S
C391       C1476   1.350       .  D
H397       C1475   1.084       .  S
C400        C405   1.402       .  A
C400       C1487   1.409   1_455  A
C400       C1494   1.486       .  S
C401        C402   1.397       .  A
C401       C1486   1.408       .  A
C401        H410   1.081       .  S
C402       C1489   1.407       .  A
C402        H411   1.081       .  S
C403        C404   1.403       .  A
C403       C1488   1.407   1_455  A
C403        C406   1.486       .  S
C404        C405   1.397       .  A
C404        H412   1.083       .  S
C405        H413   1.083       .  S
C406        H414   1.087       .  S
C406        C407   1.346       .  D
C407       H1501   1.085   1_455  S
C408       C1486   1.487       .  S
C408        H416   1.087       .  S
C408       C1495   1.344       .  D
C409        H417   1.085   1_455  S
C409       C1494   1.342       .  D
H415       C1493   1.085       .  S
C418        C423   1.407   1_455  A
C418       C1505   1.405       .  A
C418       C1512   1.489       .  S
C419        C420   1.400       .  A
C419       C1504   1.406       .  A
C419        H428   1.084       .  S
C420       C1507   1.407       .  A
C420        H429   1.080       .  S
C421        C422   1.403   1_455  A
C421       C1506   1.407       .  A
C421        C424   1.486       .  S
C422        C423   1.395       .  A
C422        H430   1.083       .  S
C423        H431   1.079       .  S
C424        H432   1.087   1_455  S
C424        C425   1.347       .  D
C425       H1519   1.083       .  S
C426       C1504   1.492       .  S
C426        H434   1.088       .  S
C426        C427   1.349       .  D
C427       H1521   1.082       .  S
H433       C1511   1.083       .  S
H435       C1513   1.082       .  S
C436        C437   1.404       .  A
C436       C1527   1.409       .  A
C436        C444   1.490       .  S
C437        C438   1.398       .  A
C437        H446   1.083       .  S
C438       C1525   1.406       .  A
C438        H447   1.082       .  S
C439        C440   1.403       .  A
C439       C1524   1.406   1_455  A
C439        C442   1.485       .  S
C440        C441   1.400       .  A
C440        H448   1.083       .  S
C441       C1522   1.409       .  A
C441        H449   1.081       .  S
C442        H450   1.087       .  S
C442        C443   1.346       .  D
C443       H1537   1.085       .  S
C444        H452   1.087       .  S
C444       C1531   1.346       .  D
C445        H453   1.084       .  S
C445       C1530   1.346       .  D
H451       C1529   1.085       .  S
C454        C455   1.403       .  A
C454       C1545   1.409       .  A
C454        C462   1.489       .  S
C455        C456   1.399       .  A
C455        H464   1.083       .  S
C456       C1543   1.408       .  A
C456        H465   1.081       .  S
C457        C458   1.402       .  A
C457       C1542   1.408       .  A
C457        C460   1.487       .  S
C458        C459   1.396       .  A
C458        H466   1.084       .  S
C459       C1540   1.409       .  A
C459        H467   1.080       .  S
C460        H468   1.086       .  S
C460       C1547   1.346       .  D
C461        H469   1.084       .  S
C461       C1546   1.347       .  D
C462        H470   1.086       .  S
C462        C463   1.346       .  D
C463       H1557   1.083   1_455  S
H471       C1549   1.083       .  S
C472        C473   1.401       .  A
C472        C477   1.405       .  A
C472        C480   1.480       .  S
C473        C474   1.399       .  A
C473        H482   1.083       .  S
C474        C475   1.410       .  A
C474        H483   1.080       .  S
C475        C476   1.403       .  A
C475        C478   1.485       .  S
C476        C477   1.395       .  A
C476        H484   1.084       .  S
C477        H485   1.083       .  S
C478        H486   1.088       .  S
C478        C479   1.344       .  D
C479        H487   1.082       .  S
C480        H488   1.087       .  S
C480        C481   1.341       .  D
C481        H489   1.086       .  S
C490        C491   1.402       .  A
C490        C495   1.409       .  A
C490        C498   1.486       .  S
C491        C492   1.394       .  A
C491        H500   1.084       .  S
C492        C493   1.406       .  A
C492        H501   1.082       .  S
C493        C494   1.405       .  A
C493        C496   1.487       .  S
C494        C495   1.403       .  A
C494        H502   1.083       .  S
C495        H503   1.081       .  S
C496        H504   1.087       .  S
C496        C497   1.345       .  D
C497        H505   1.085       .  S
C498        H506   1.087       .  S
C498        C499   1.346       .  D
C499        H507   1.084       .  S
C508        C509   1.403       .  A
C508        C513   1.408       .  A
C508        C516   1.486       .  S
C509        C510   1.397       .  A
C509        H518   1.084       .  S
C510        C511   1.408       .  A
C510        H519   1.081       .  S
C511        C512   1.402       .  A
C511        C514   1.485       .  S
C512        C513   1.397       .  A
C512        H520   1.084       .  S
C513        H521   1.081       .  S
C514        H522   1.087       .  S
C514        C515   1.345       .  D
C515        H523   1.082       .  S
C516        H524   1.087       .  S
C516        C517   1.345       .  D
C517        H525   1.084       .  S
C526        C527   1.403       .  A
C526        C531   1.407       .  A
C526        C534   1.485       .  S
C527        C528   1.398       .  A
C527        H536   1.083       .  S
C528        C529   1.408       .  A
C528        H537   1.081       .  S
C529        C530   1.403       .  A
C529        C532   1.486       .  S
C530        C531   1.397       .  A
C530        H538   1.083       .  S
C531        H539   1.081       .  S
C532        H540   1.087       .  S
C532        C533   1.346       .  D
C533        H541   1.084       .  S
C534        H542   1.087       .  S
C534        C535   1.345       .  D
C535        H543   1.085       .  S
C544        C545   1.417       .  A
C544        C549   1.406       .  A
C544       C1078   1.488       .  S
C545        C546   1.406       .  A
C545       C1042   1.490       .  S
C546        C547   1.404       .  A
C546        H551   1.083       .  S
C547        C548   1.415       .  A
C547       C1022   1.491       .  S
C548        C549   1.408       .  A
C548       C1058   1.491       .  S
C549        H550   1.084       .  S
C552        C553   1.415       .  A
C552        C557   1.408       .  A
C552       C1006   1.488       .  S
C553        C554   1.397       .  A
C553        C950   1.481       .  S
C554        C555   1.402       .  A
C554        H559   1.084       .  S
C555        C556   1.414       .  A
C555        C968   1.483       .  S
C556        C557   1.403       .  A
C556        C988   1.484       .  S
C557        H558   1.083       .  S
In560      O1648   2.229       .  S
In560      O1649   2.265       .  S
In560      O1657   2.234       .  S
In560       O565   2.243       .  S
In560      O1111   2.249       .  S
C561       C1040   1.473       .  S
C561        O567   1.264       .  A
C561        O569   1.259       .  A
O562      In1646   2.225       .  S
O562        C570   1.258       .  A
O563      In1646   2.264       .  S
O563        C570   1.266       .  A
C564        C970   1.472       .  S
C564       O1657   1.262       .  A
C564        O565   1.264       .  A
C566        C952   1.468       .  S
C566        O568   1.265       .  A
C566       O1658   1.260   1_455  A
O568      In1103   2.245       .  S
C570       C1024   1.473       .  S
O571      In1646   2.222       .  S
O571       C1650   1.263   1_455  A
O572       C1652   1.260       .  A
C573        C574   1.412       .  A
C573        C578   1.402       .  A
C573        C896   1.491   1_455  S
C574        C575   1.407       .  A
C574        C932   1.482       .  S
C575        C576   1.408       .  A
C575        H580   1.083       .  S
C576        C577   1.415       .  A
C576        C914   1.494       .  S
C577        C578   1.403       .  A
C577        C878   1.484       .  S
C578       H1665   1.083       .  S
H579       C1664   1.083       .  S
In581      O1127   2.248   1_565  S
In581       O586   2.252       .  S
In581       O588   2.249       .  S
In581      O1132   2.247       .  S
In581      O1676   2.253       .  S
In581      O1679   2.243   1_565  S
C582        C898   1.474       .  S
C582        O588   1.257       .  A
C582       O1676   1.260       .  A
O583       C1677   1.259       .  A
O584      In1124   2.241   1_455  S
O584        C591   1.261   1_455  A
C585        C842   1.471       .  S
C585        O592   1.260       .  A
C587        C860   1.475       .  S
C587        O589   1.261       .  A
O589      In1124   2.248   1_455  S
O590      In1667   2.253       .  S
O590       C1668   1.260       .  A
C591        C880   1.469       .  S
C591       O1669   1.259       .  A
O593      In1667   2.248   1_445  S
C594        C595   1.417       .  A
C594        C599   1.404       .  A
C594        C826   1.484       .  S
C595        C596   1.405       .  A
C595        C862   1.489       .  S
C596        C597   1.404       .  A
C596        H601   1.083       .  S
C597        C598   1.412       .  A
C597        C844   1.484       .  S
C598        C599   1.405       .  A
C598        C808   1.489       .  S
C599        H600   1.084       .  S
C602        C603   1.414       .  A
C602        C607   1.404       .  A
C602        C736   1.485       .  S
C603        C604   1.407       .  A
C603        C788   1.493       .  S
C604        C605   1.408       .  A
C604        H609   1.084       .  S
C605        C606   1.418       .  A
C605        C770   1.485       .  S
C606        C607   1.400       .  A
C606        C752   1.481       .  S
C607        H608   1.084       .  S
C610        C611   1.418       .  A
C610        C615   1.401       .  A
C610       C1076   1.481       .  S
C611        C612   1.411       .  A
C611        C790   1.502       .  S
C612       C1156   1.409   1_565  A
C612        H617   1.082       .  S
C613       C1155   1.403   1_455  A
C613        C614   1.419       .  A
C613        C772   1.489       .  S
C614       C1158   1.407       .  A
C614       C1060   1.489       .  S
C615       C1157   1.406   1_565  A
C615        H616   1.084   1_565  S
In618       O623   2.242       .  S
In618      O1711   2.265       .  S
In618      O1169   2.254       .  S
In618      O1713   2.233       .  S
In618      O1716   2.225       .  S
C619        C754   1.470       .  S
C619        O625   1.264       .  A
C619        O627   1.259       .  A
O620        C628   1.260   1_545  A
O621        C628   1.266       .  A
C622        C700   1.475       .  S
C622        O623   1.265       .  A
C624        C718   1.475       .  S
C624        O626   1.267   1_545  A
O625      In1704   2.250   1_455  S
O626      In1161   2.256   1_465  S
O627      In1704   2.229   1_455  S
C628        C734   1.468       .  S
O630      In1704   2.226   1_455  S
C631        C632   1.415       .  A
C631        C636   1.405       .  A
C631        C716   1.489       .  S
C632        C633   1.409       .  A
C632        C682   1.497       .  S
C633        C634   1.406       .  A
C633        H638   1.081       .  S
C634        C635   1.417       .  A
C634        C664   1.487       .  S
C635        C636   1.407       .  A
C635        C698   1.490       .  S
C636        H637   1.083       .  S
C639        C640   1.418   1_554  A
C639       C1730   1.408       .  A
C639        C680   1.493       .  S
C640       C1727   1.403       .  A
C640        C824   1.486       .  S
C641       C1726   1.404       .  A
C641        C642   1.407   1_556  A
C641        H646   1.084       .  S
C642        C643   1.416       .  A
C642        C806   1.489   1_554  S
C643        C644   1.402       .  A
C643        C662   1.486       .  S
C644       C1725   1.407       .  A
C644        H645   1.084       .  S
C647        C648   1.415       .  A
C647       C1004   1.489       .  S
C648        C934   1.484       .  S
C649        C650   1.408       .  A
C649        H654   1.084       .  S
C650        C651   1.415       .  A
C650        C916   1.489       .  S
C651        C652   1.401       .  A
C651        C986   1.485       .  S
C652        H653   1.084       .  S
C655        C656   1.403       .  A
C655        C660   1.408       .  A
C655        C663   1.487       .  S
C656        C657   1.400       .  A
C656        H665   1.083       .  S
C657        C658   1.409       .  A
C657        H666   1.081       .  S
C658        C659   1.403       .  A
C659        C660   1.397       .  A
C659        H667   1.083       .  S
C660        H668   1.082       .  S
C661        H669   1.087   1_545  S
C662        H670   1.085       .  S
C663        H671   1.086       .  S
C664        H672   1.085       .  S
C673        C678   1.407       .  A
C673        C681   1.487       .  S
C674        H683   1.083       .  S
C675        C676   1.409   1_545  A
C676        C677   1.403       .  A
C676        C679   1.487   1_565  S
C677        C678   1.398       .  A
C677        H685   1.083       .  S
C678        H686   1.082       .  S
C679        H687   1.086   1_545  S
C680        H688   1.085       .  S
C681        C682   1.348       .  D
C682        H690   1.085   1_565  S
C691        C696   1.408       .  A
C691        C699   1.490       .  S
C692        H701   1.083       .  S
C693        C694   1.407   1_565  A
C694        C695   1.404       .  A
C694        C697   1.489       .  S
C695        C696   1.399       .  A
C695        H703   1.084       .  S
C696        H704   1.080       .  S
C697        H705   1.087       .  S
C697        C698   1.349   1_545  D
C709        C710   1.404   1_545  A
C709        C717   1.490   1_545  S
C710        C711   1.400       .  A
C710        H719   1.083       .  S
C711        H720   1.082       .  S
C712        C713   1.402       .  A
C712        C715   1.484       .  S
C713        C714   1.398       .  A
C713        H721   1.083       .  S
C714        H722   1.082       .  S
C715        H723   1.087       .  S
C716        H724   1.085       .  S
C717        H725   1.087       .  S
C717        C718   1.345   1_565  D
C727        C728   1.401       .  A
C727        C732   1.407       .  A
C727        C735   1.480       .  S
C728        C729   1.396       .  A
C728        H737   1.083       .  S
C729        C730   1.408       .  A
C729        H738   1.082       .  S
C730        C731   1.401       .  A
C730        C733   1.481       .  S
C731        C732   1.396       .  A
C731        H739   1.083       .  S
C732        H740   1.082       .  S
C733        H741   1.087       .  S
C733        C734   1.341       .  D
C734        H742   1.085       .  S
C735        H743   1.087       .  S
C735        C736   1.344       .  D
C736        H744   1.083       .  S
C745        C746   1.403       .  A
C745        C750   1.409       .  A
C745        C753   1.485       .  S
C746        C747   1.398       .  A
C746        H755   1.083       .  S
C747        C748   1.407       .  A
C747        H756   1.082       .  S
C748        C749   1.401       .  A
C748        C751   1.483       .  S
C749        C750   1.397       .  A
C749        H757   1.083       .  S
C750        H758   1.081       .  S
C751        H759   1.087       .  S
C751        C752   1.343       .  D
C752        H760   1.086       .  S
C753        H761   1.087       .  S
C753        C754   1.343       .  D
C754        H762   1.085       .  S
C763        C764   1.402       .  A
C763        C768   1.409       .  A
C763        C771   1.487       .  S
C764        C765   1.395       .  A
C764        H773   1.084       .  S
C765        C766   1.407       .  A
C765        H774   1.081       .  S
C766        C767   1.404       .  A
C766        C769   1.488       .  S
C767        C768   1.402       .  A
C767        H775   1.083       .  S
C768        H776   1.081       .  S
C769        H777   1.086       .  S
C769        C770   1.347       .  D
C770        H778   1.084       .  S
C771        H779   1.087       .  S
C771        C772   1.346       .  D
C772        H780   1.084       .  S
C781        C782   1.405       .  A
C781        C786   1.410       .  A
C781        C789   1.499       .  S
C782        C783   1.403       .  A
C782        H791   1.083       .  S
C783        C784   1.410       .  A
C783        H792   1.080       .  S
C784        C785   1.404       .  A
C784        C787   1.497       .  S
C785        C786   1.400       .  A
C785        H793   1.083       .  S
C786        H794   1.080       .  S
C787        H795   1.087       .  S
C787        C788   1.349       .  D
C788        H796   1.080       .  S
C789        H797   1.085       .  S
C789        C790   1.351       .  D
C790        H798   1.079       .  S
C799        C800   1.404   1_565  A
C799        C804   1.407       .  A
C799        C807   1.487       .  S
C800        C801   1.401       .  A
C800        H809   1.083       .  S
C801        C802   1.409       .  A
C801        H810   1.081       .  S
C802        C803   1.403   1_545  A
C802        C805   1.488       .  S
C803        C804   1.396       .  A
C803        H811   1.083       .  S
C804        H812   1.081       .  S
C807        H815   1.087   1_565  S
C808        H816   1.085       .  S
C817        C822   1.408       .  A
C818        C819   1.398       .  A
C818        H827   1.083       .  S
C819        H828   1.081       .  S
C820        C821   1.404       .  A
C820        C823   1.490       .  S
C821        C822   1.400       .  A
C821        H829   1.083       .  S
C822        H830   1.081       .  S
C823        H831   1.087       .  S
C824        H832   1.085       .  S
C825        H833   1.087       .  S
C825        C826   1.345       .  D
C835        C836   1.404       .  A
C835        C840   1.411   1_565  A
C835        C843   1.491       .  S
C836        C837   1.396       .  A
C836        H845   1.083       .  S
C837        C838   1.407       .  A
C837        H846   1.081       .  S
C839        H847   1.083       .  S
C841        H849   1.088       .  S
C841        C842   1.346       .  D
C843        H851   1.086       .  S
C844        H852   1.085       .  S
C853        C854   1.404       .  A
C853        C858   1.407       .  A
C853        C861   1.487       .  S
C854        C855   1.400       .  A
C855        C856   1.408       .  A
C856        C857   1.403       .  A
C856        C859   1.486       .  S
C857        C858   1.397       .  A
C857        H865   1.083       .  S
C858        H866   1.081       .  S
C859        H867   1.087       .  S
C859        C860   1.345       .  D
C860        H868   1.085       .  S
C861        C862   1.348       .  D
C862        H870   1.084       .  S
C871        C872   1.402   1_655  A
C871       C1962   1.406       .  A
C871        C879   1.479   1_655  S
C872        C873   1.397       .  A
C872        H881   1.083       .  S
C873       C1960   1.407   1_455  A
C873        H882   1.082       .  S
C874       C1959   1.407       .  A
C874        C875   1.402       .  A
C874        C877   1.482       .  S
C875        C876   1.396       .  A
C875        H883   1.083       .  S
C876       C1957   1.407       .  A
C876        H884   1.082       .  S
C877        H885   1.087       .  S
C877       C1964   1.345       .  D
C878        H886   1.083       .  S
C878       C1963   1.344   1_455  D
C879        H887   1.087       .  S
C879        C880   1.343   1_455  D
C880       H1974   1.086       .  S
H888       C1966   1.085       .  S
C889        C890   1.402   1_655  A
C889       C1980   1.409       .  A
C889        C897   1.487       .  S
C890        C891   1.395       .  A
C890        H899   1.083       .  S
C891       C1978   1.406   1_455  A
C891        H900   1.082       .  S
C892       C1977   1.408       .  A
C892        C893   1.404       .  A
C892        C895   1.489       .  S
C893        C894   1.399       .  A
C893        H901   1.084       .  S
C894       C1975   1.409       .  A
C894        H902   1.080       .  S
C895        H903   1.086       .  S
C895       C1982   1.348       .  D
C896        H904   1.085   1_655  S
C896       C1981   1.348       .  D
C897        H905   1.087   1_655  S
C897       C1984   1.344       .  D
C898        H906   1.082       .  S
C898       C1983   1.346       .  D
C907        C908   1.403       .  A
C907       C1998   1.409       .  A
C907        C915   1.489       .  S
C908        C909   1.398       .  A
C908        H917   1.083       .  S
C909       C1996   1.408       .  A
C909        H918   1.082       .  S
C910       C1995   1.410       .  A
C910        C911   1.405       .  A
C910        C913   1.495       .  S
C911        C912   1.400       .  A
C911        H919   1.083   1_455  S
C912       C1993   1.409       .  A
C912        H920   1.079   1_455  S
C913        H921   1.086       .  S
C913        C914   1.349       .  D
C914       H2008   1.078       .  S
C915        H923   1.087       .  S
C915       C2002   1.347       .  D
C916        H924   1.082   1_455  S
C916       C2001   1.348       .  D
H922       C2000   1.082       .  S
C925        C926   1.402       .  A
C925       C2016   1.405       .  A
C925        C933   1.482       .  S
C926        C927   1.400       .  A
C926        H935   1.083       .  S
C927       C2014   1.407       .  A
C927        H936   1.082       .  S
C928       C2013   1.406   1_455  A
C928        C929   1.402       .  A
C928        C931   1.481       .  S
C929        C930   1.399       .  A
C929        H937   1.083       .  S
C930       C2011   1.407       .  A
C930        H938   1.082       .  S
C931        H939   1.087       .  S
C931        C932   1.343       .  D
C932       H2026   1.086   1_455  S
C933        H941   1.087       .  S
C933       C2020   1.346       .  D
C934        H942   1.086       .  S
C934       C2019   1.345       .  D
H940       C2018   1.086       .  S
C943       C2030   1.406       .  A
C943        C948   1.401       .  A
C943       C2037   1.482       .  S
C944       C2029   1.407       .  A
C944        C945   1.395       .  A
C944        H953   1.082       .  S
C945       C2032   1.406       .  A
C945        H954   1.081       .  S
C946       C2031   1.408       .  A
C946        C947   1.405       .  A
C946        C949   1.487       .  S
C947        C948   1.399       .  A
C947        H955   1.083       .  S
C948        H956   1.083       .  S
C949        H957   1.087       .  S
C949        C950   1.346       .  D
C950       H2044   1.083       .  S
C951       C2029   1.483       .  S
C951        H959   1.087       .  S
C951       C2038   1.342       .  D
C952        H960   1.085   1_455  S
C952       C2037   1.342       .  D
H958       C2036   1.085       .  S
C961       C2048   1.403       .  A
C961        C966   1.408   1_455  A
C961       C2055   1.484       .  S
C962       C2047   1.405       .  A
C962        C963   1.401       .  A
C962        H971   1.084       .  S
C963       C2050   1.409       .  A
C963        H972   1.080       .  S
C964       C2049   1.405       .  A
C964        C965   1.402   1_455  A
C964        C967   1.480       .  S
C965        C966   1.397       .  A
C965        H973   1.083       .  S
C966        H974   1.080       .  S
C967        H975   1.087   1_455  S
C967        C968   1.345       .  D
C968       H2062   1.085       .  S
C969       C2047   1.488       .  S
C969        H977   1.087       .  S
C969        C970   1.347       .  D
C970       H2064   1.083       .  S
H976       C2054   1.082       .  S
H978       C2056   1.083       .  S
C979        C980   1.403       .  A
C979       C2070   1.408       .  A
C979        C987   1.486       .  S
C980        C981   1.398       .  A
C980        H989   1.084       .  S
C981       C2068   1.407       .  A
C981        H990   1.081       .  S
C982       C2067   1.407   1_455  A
C982        C983   1.403       .  A
C982        C985   1.485       .  S
C983        C984   1.398       .  A
C983        H991   1.083       .  S
C984       C2065   1.408       .  A
C984        H992   1.081       .  S
C985        H993   1.087       .  S
C985        C986   1.346       .  D
C986       H2080   1.085   1_455  S
C987        H995   1.087       .  S
C987       C2074   1.345       .  D
C988        H996   1.085       .  S
C988       C2073   1.346       .  D
H994       C2072   1.085       .  S
C997        C998   1.403       .  A
C997       C2088   1.407       .  A
C997       C1005   1.484       .  S
C998        C999   1.398       .  A
C998       H1007   1.083       .  S
C999       C2086   1.408       .  A
C999       H1008   1.082       .  S
C1000      C2085   1.408       .  A
C1000      C1001   1.402       .  A
C1000      C1003   1.484       .  S
C1001      C1002   1.397       .  A
C1001      H1009   1.084       .  S
C1002      C2083   1.407       .  A
C1002      H1010   1.082       .  S
C1003      H1011   1.086       .  S
C1003      C2090   1.345       .  D
C1004      H1012   1.085       .  S
C1004      C2089   1.345       .  D
C1005      H1013   1.085       .  S
C1005      C1006   1.346       .  D
C1006      H2100   1.084       .  S
H1014      C2092   1.085       .  S
C1015      C1016   1.403       .  A
C1015      C1020   1.406       .  A
C1015      C1023   1.487       .  S
C1016      C1017   1.402       .  A
C1016      H1025   1.083       .  S
C1017      C1018   1.410       .  A
C1017      H1026   1.080       .  S
C1018      C1019   1.403       .  A
C1018      C1021   1.489       .  S
C1019      C1020   1.396       .  A
C1019      H1027   1.083       .  S
C1020      H1028   1.082       .  S
C1021      H1029   1.087       .  S
C1021      C1022   1.346       .  D
C1022      H1030   1.081       .  S
C1023      H1031   1.087       .  S
C1023      C1024   1.344       .  D
C1024      H1032   1.086       .  S
C1033      C1034   1.403       .  A
C1033      C1038   1.408       .  A
C1033      C1041   1.486       .  S
C1034      C1035   1.396       .  A
C1034      H1043   1.084       .  S
C1035      C1036   1.407       .  A
C1035      H1044   1.082       .  S
C1036      C1037   1.404       .  A
C1036      C1039   1.487       .  S
C1037      C1038   1.401       .  A
C1037      H1045   1.083       .  S
C1038      H1046   1.081       .  S
C1039      H1047   1.087       .  S
C1039      C1040   1.344       .  D
C1040      H1048   1.085       .  S
C1041      H1049   1.087       .  S
C1041      C1042   1.347       .  D
C1042      H1050   1.084       .  S
C1051      C1052   1.403       .  A
C1051      C1056   1.409       .  A
C1051      C1059   1.490       .  S
C1052      C1053   1.398       .  A
C1052      H1061   1.084       .  S
C1053      C1054   1.408       .  A
C1053      H1062   1.081       .  S
C1054      C1055   1.403       .  A
C1054      C1057   1.489       .  S
C1055      C1056   1.399       .  A
C1055      H1063   1.084       .  S
C1056      H1064   1.080       .  S
C1057      H1065   1.087       .  S
C1057      C1058   1.347       .  D
C1058      H1066   1.081       .  S
C1059      H1067   1.087       .  S
C1059      C1060   1.347       .  D
C1060      H1068   1.083       .  S
C1069      C1070   1.405       .  A
C1069      C1074   1.407       .  A
C1069      C1077   1.489       .  S
C1070      C1071   1.400       .  A
C1070      H1079   1.083       .  S
C1071      C1072   1.408       .  A
C1071      H1080   1.081       .  S
C1072      C1073   1.403       .  A
C1072      C1075   1.487       .  S
C1073      C1074   1.397       .  A
C1073      H1081   1.083       .  S
C1074      H1082   1.081       .  S
C1075      H1083   1.088       .  S
C1075      C1076   1.345       .  D
C1076      H1084   1.084       .  S
C1077      H1085   1.087       .  S
C1077      C1078   1.348       .  D
C1078      H1086   1.084       .  S
C1087      C1088   1.416       .  A
C1087      C1092   1.407       .  A
C1087      C1621   1.489       .  S
C1088      C1089   1.403       .  A
C1088      C1585   1.489       .  S
C1089      C1090   1.404       .  A
C1089      H1094   1.083       .  S
C1090      C1091   1.416       .  A
C1090      C1565   1.490       .  S
C1091      C1092   1.410       .  A
C1091      C1601   1.493       .  S
C1092      H1093   1.084       .  S
C1095      C1096   1.415       .  A
C1095      C1100   1.408       .  A
C1095      C1549   1.489       .  S
C1096      C1097   1.400       .  A
C1096      C1493   1.485       .  S
C1097      C1098   1.406       .  A
C1097      H1102   1.084       .  S
C1098      C1099   1.417       .  A
C1098      C1511   1.491       .  S
C1099      C1100   1.406       .  A
C1099      C1531   1.486       .  S
C1100      H1101   1.083       .  S
In1103     O1108   2.243   1_465  S
In1103     O1653   2.250   1_455  S
In1103     O1655   2.225   1_455  S
In1103     O1658   2.223   1_455  S
C1104      C1583   1.468       .  S
C1104      O1110   1.264       .  A
C1104      O1112   1.260       .  A
O1105      C1113   1.259       .  A
O1106      C1113   1.264       .  A
C1107      C1513   1.472       .  S
C1107      O1108   1.264       .  A
C1109      C1495   1.471       .  S
C1109      O1111   1.265       .  A
O1110     In1646   2.241   1_655  S
O1112     In1646   2.228   1_655  S
C1113      C1567   1.469       .  S
O1115     In1646   2.225   1_655  S
C1116      C1117   1.419       .  A
C1116      C1121   1.406       .  A
C1116      C1439   1.495       .  S
C1117      C1118   1.405       .  A
C1117      C1475   1.484       .  S
C1118      C1119   1.406       .  A
C1118      H1123   1.084       .  S
C1119      C1120   1.412       .  A
C1119      C1457   1.487       .  S
C1120      C1121   1.403       .  A
C1120      C1421   1.487       .  S
In1124     O1669   2.241       .  S
In1124     O1678   2.248       .  S
In1124     O1129   2.249       .  S
In1124     O1131   2.253       .  S
C1125      C1441   1.475       .  S
C1125      O1131   1.259       .  A
O1126     In1667   2.244       .  S
O1127      C1134   1.261       .  A
C1128      C1385   1.472       .  S
C1128      O1135   1.259       .  A
C1128      O1672   1.262   1_565  A
O1129      C1671   1.261       .  A
C1130      C1403   1.470   1_565  S
C1130      O1132   1.260       .  A
C1130      O1679   1.258   1_565  A
C1134      C1423   1.470       .  S
O1135     In1667   2.238       .  S
O1136      C1673   1.259       .  A
C1137      C1138   1.418       .  A
C1137      C1142   1.406       .  A
C1137      C1369   1.491       .  S
C1138      C1139   1.407       .  A
C1138      C1405   1.486       .  S
C1139      C1140   1.402       .  A
C1139      H1144   1.082       .  S
C1140      C1141   1.412       .  A
C1140      C1387   1.492   1_565  S
C1141      C1142   1.406       .  A
C1141      C1351   1.483       .  S
C1142      H1143   1.084       .  S
C1145      C1146   1.415       .  A
C1145      C1150   1.405       .  A
C1145      C1279   1.491       .  S
C1146      C1147   1.407       .  A
C1146      C1331   1.489       .  S
C1147      C1148   1.404       .  A
C1147      H1152   1.084       .  S
C1148      C1149   1.416       .  A
C1148      C1313   1.489       .  S
C1149      C1150   1.399       .  A
C1149      C1295   1.476       .  S
C1150      H1151   1.083       .  S
C1153      C1154   1.415       .  A
C1153      C1158   1.402   1_655  A
C1153      C1619   1.483       .  S
C1154      C1155   1.407       .  A
C1154      C1333   1.489       .  S
C1155      H1160   1.084       .  S
C1156      C1157   1.421       .  A
C1156      C1315   1.491       .  S
C1157      C1603   1.496       .  S
C1158      H1159   1.084       .  S
In1161     O1706   2.225       .  S
In1161     O1707   2.258   1_545  S
In1161     O1715   2.232       .  S
In1161     O1166   2.254       .  S
C1162      C1297   1.469       .  S
C1162      O1168   1.266       .  A
C1162      O1170   1.260       .  A
O1163     In1704   2.220       .  S
O1163      C1171   1.258       .  A
O1164     In1704   2.254       .  S
O1164      C1171   1.265       .  A
C1165      C1243   1.478       .  S
C1165      O1715   1.262       .  A
C1165      O1166   1.265       .  A
C1167      C1261   1.471       .  S
C1167      O1169   1.265       .  A
C1167      O1716   1.260       .  A
C1171      C1277   1.466       .  S
O1172     In1704   2.232       .  S
O1172      C1708   1.264       .  A
O1173      C1710   1.260       .  A
C1174      C1175   1.414       .  A
C1174      C1179   1.405       .  A
C1174      C1259   1.488       .  S
C1175      C1176   1.408       .  A
C1175      C1225   1.495       .  S
C1176      C1177   1.404       .  A
C1176      H1181   1.081       .  S
C1177      C1178   1.418       .  A
C1177      C1207   1.488       .  S
C1178      C1179   1.407       .  A
C1178      C1241   1.488       .  S
C1179      H1180   1.083       .  S
C1182      C1183   1.418   1_554  A
C1182      C1223   1.490       .  S
C1183      C1367   1.489       .  S
C1184      C1185   1.408   1_556  A
C1184      H1189   1.084       .  S
C1185      C1186   1.417       .  A
C1185      C1349   1.490   1_554  S
C1186      C1187   1.404       .  A
C1186      C1205   1.489       .  S
C1187      H1188   1.084       .  S
C1190      C1191   1.417       .  A
C1190      C1738   1.406       .  A
C1190      C1547   1.490       .  S
C1191      C1735   1.404       .  A
C1191      C1477   1.487       .  S
C1192      C1734   1.404       .  A
C1192      C1193   1.409   1_565  A
C1192      H1197   1.084   1_565  S
C1193      C1194   1.416       .  A
C1193      C1459   1.487       .  S
C1194      C1195   1.402   1_545  A
C1194      C1529   1.488       .  S
C1195      C1733   1.407       .  A
C1195      H1196   1.083       .  S
C1198      C1199   1.403       .  A
C1198      C1203   1.409   1_545  A
C1198      C1206   1.492       .  S
C1199      C1200   1.400       .  A
C1199      H1208   1.083       .  S
C1200      C1201   1.409       .  A
C1200      H1209   1.080       .  S
C1201      C1202   1.405   1_545  A
C1201      C1747   1.493       .  S
C1202      C1203   1.400       .  A
C1202      H1210   1.084       .  S
C1203      H1211   1.080       .  S
C1204      C1744   1.488       .  S
C1204      H1212   1.087       .  S
C1204      C1748   1.347       .  D
C1205      H1213   1.083       .  S
C1205      C1747   1.349       .  D
C1206      H1214   1.086       .  S
C1206      C1750   1.347   1_545  D
C1207      H1215   1.084       .  S
C1207      C1749   1.345       .  D
C1216      C1760   1.403       .  A
C1216      C1221   1.408       .  A
C1216      C1224   1.486       .  S
C1217      C1759   1.404   1_545  A
C1217      C1761   1.400       .  A
C1217      H1226   1.083       .  S
C1218      C1760   1.399       .  A
C1218      C1219   1.407       .  A
C1218      H1770   1.081       .  S
C1219      C1220   1.403       .  A
C1219      C1222   1.485       .  S
C1220      C1221   1.398       .  A
C1220      H1228   1.084       .  S
C1221      H1229   1.082       .  S
C1222      H1230   1.086       .  S
C1222      C1766   1.347       .  D
C1223      H1231   1.085       .  S
C1223      C1765   1.347       .  D
C1224      H1775   1.084       .  S
C1224      C1225   1.347       .  D
C1225      H1233   1.085       .  S
H1227      C1761   1.082       .  S
H1232      C1767   1.085       .  S
C1234      C1778   1.405       .  A
C1234      C1239   1.409       .  A
C1234      C1242   1.491       .  S
C1235      C1777   1.406   1_565  A
C1235      C1779   1.399       .  A
C1235      H1244   1.083       .  S
C1236      C1778   1.397       .  A
C1236      C1237   1.407       .  A
C1236      H1788   1.080       .  S
C1237      C1238   1.404       .  A
C1237      C1240   1.488       .  S
C1238      C1239   1.399       .  A
C1238      H1246   1.084       .  S
C1239      H1247   1.079       .  S
C1240      H1248   1.087       .  S
C1240      C1241   1.348       .  D
C1241      H1792   1.083       .  S
C1242      H1793   1.087       .  S
C1242      C1786   1.347       .  D
C1243      H1794   1.083       .  S
C1243      C1785   1.349       .  D
H1245      C1779   1.082       .  S
H1249      C1784   1.085   1_565  S
H1250      C1785   1.087   1_565  S
H1251      C1786   1.082       .  S
C1252      C1253   1.402       .  A
C1252      C1800   1.408       .  A
C1252      C1260   1.485       .  S
C1253      C1254   1.399       .  A
C1253      H1262   1.084       .  S
C1254      C1798   1.408       .  A
C1254      H1263   1.082       .  S
C1255      C1797   1.410   1_545  A
C1255      C1256   1.402       .  A
C1255      C1258   1.489       .  S
C1256      C1257   1.397       .  A
C1256      H1264   1.083       .  S
C1257      C1795   1.407   1_545  A
C1257      H1265   1.082       .  S
C1258      H1266   1.087       .  S
C1258      C1802   1.345   1_545  D
C1259      H1267   1.086       .  S
C1259      C1801   1.344       .  D
C1260      H1268   1.087       .  S
C1260      C1261   1.343       .  D
C1261      H1812   1.086       .  S
H1269      C1804   1.085       .  S
C1270      C1271   1.401       .  A
C1270      C1275   1.405       .  A
C1270      C1278   1.475       .  S
C1271      C1272   1.396       .  A
C1271      H1280   1.084       .  S
C1272      C1273   1.406       .  A
C1272      H1281   1.083       .  S
C1273      C1274   1.401       .  A
C1273      C1276   1.477       .  S
C1274      C1275   1.398       .  A
C1274      H1282   1.083       .  S
C1275      H1283   1.083       .  S
C1276      H1284   1.087       .  S
C1276      C1277   1.340       .  D
C1277      H1285   1.087       .  S
C1278      H1286   1.085       .  S
C1278      C1279   1.346       .  D
C1279      H1287   1.085       .  S
C1288      C1289   1.402       .  A
C1288      C1293   1.408       .  A
C1288      C1296   1.483       .  S
C1289      C1290   1.397       .  A
C1289      H1298   1.083       .  S
C1290      C1291   1.407       .  A
C1290      H1299   1.082       .  S
C1291      C1292   1.401       .  A
C1291      C1294   1.480       .  S
C1292      C1293   1.396       .  A
C1292      H1300   1.083       .  S
C1293      H1301   1.082       .  S
C1294      H1302   1.087       .  S
C1294      C1295   1.342       .  D
C1295      H1303   1.085       .  S
C1296      H1304   1.087       .  S
C1296      C1297   1.342       .  D
C1297      H1305   1.085       .  S
C1306      C1307   1.403       .  A
C1306      C1311   1.408       .  A
C1306      C1314   1.486       .  S
C1307      C1308   1.395       .  A
C1307      H1316   1.084       .  S
C1308      C1309   1.406       .  A
C1308      H1317   1.082       .  S
C1309      C1310   1.405       .  A
C1309      C1312   1.487       .  S
C1310      C1311   1.403       .  A
C1310      H1318   1.084       .  S
C1311      H1319   1.081       .  S
C1312      H1320   1.085       .  S
C1312      C1313   1.348       .  D
C1313      H1321   1.085       .  S
C1314      H1322   1.087       .  S
C1314      C1315   1.347       .  D
C1315      H1323   1.085       .  S
C1324      C1325   1.404       .  A
C1324      C1329   1.407       .  A
C1324      C1332   1.487       .  S
C1325      C1326   1.401       .  A
C1325      H1334   1.083       .  S
C1326      C1327   1.408       .  A
C1326      H1335   1.082       .  S
C1327      C1328   1.402       .  A
C1327      C1330   1.485       .  S
C1328      C1329   1.395       .  A
C1328      H1336   1.083       .  S
C1329      H1337   1.081       .  S
C1330      H1338   1.087       .  S
C1330      C1331   1.345       .  D
C1331      H1339   1.084       .  S
C1332      H1340   1.086       .  S
C1332      C1333   1.347       .  D
C1333      H1341   1.081       .  S
C1342      C1343   1.404       .  A
C1342      C1347   1.408       .  A
C1342      C1350   1.491       .  S
C1343      C1344   1.401       .  A
C1343      H1352   1.083       .  S
C1344      C1345   1.409       .  A
C1344      H1353   1.081       .  S
C1345      C1346   1.403       .  A
C1345      C1348   1.489       .  S
C1346      C1347   1.397       .  A
C1346      H1354   1.083       .  S
C1347      H1355   1.081       .  S
C1348      H1899   1.086       .  S
C1348      C1892   1.347       .  D
C1349      H1900   1.084   1_556  S
C1349      C1891   1.346       .  D
C1350      H1358   1.086       .  S
C1350      C1894   1.347       .  D
C1351      H1359   1.085       .  S
C1351      C1893   1.345   1_565  D
H1356      C1891   1.086       .  S
H1357      C1892   1.083   1_554  S
C1360      C1904   1.403       .  A
C1360      C1365   1.409       .  A
C1360      C1911   1.488       .  S
C1361      C1903   1.404       .  A
C1361      C1362   1.399       .  A
C1361      H1370   1.084       .  S
C1362      C1906   1.409       .  A
C1362      H1371   1.079       .  S
C1363      C1905   1.408       .  A
C1363      C1364   1.403       .  A
C1363      C1366   1.488       .  S
C1364      C1365   1.399       .  A
C1364      H1372   1.083       .  S
C1365      H1373   1.081       .  S
C1366      H1374   1.087       .  S
C1366      C1910   1.347       .  D
C1367      H1375   1.082       .  S
C1367      C1909   1.349       .  D
C1368      C1903   1.494       .  S
C1368      H1376   1.086       .  S
C1368      C1369   1.349   1_545  D
C1369      H1920   1.083       .  S
H1377      C1912   1.084       .  S
C1378      C1379   1.403       .  A
C1378      C1383   1.407       .  A
C1378      C1386   1.488       .  S
C1379      C1380   1.399       .  A
C1379      H1388   1.083       .  S
C1380      C1381   1.409       .  A
C1380      H1389   1.080       .  S
C1381      C1925   1.404       .  A
C1381      C1927   1.490       .  S
C1382      C1924   1.404   1_545  A
C1382      C1926   1.398       .  A
C1382      H1390   1.083       .  S
C1383      C1925   1.397       .  A
C1383      H1934   1.081       .  S
C1384      C1924   1.491       .  S
C1384      H1392   1.087   1_565  S
C1384      C1385   1.345       .  D
C1385      H1936   1.082       .  S
C1386      H1394   1.086       .  S
C1386      C1930   1.347       .  D
C1387      H1395   1.083       .  S
C1387      C1929   1.347   1_545  D
H1391      C1926   1.081       .  S
H1393      C1928   1.082       .  S
C1396      C1397   1.402   1_565  A
C1396      C1401   1.407       .  A
C1396      C1404   1.482   1_565  S
C1397      C1398   1.393       .  A
C1397      H1949   1.084       .  S
C1398      C1399   1.407   1_545  A
C1398      H1950   1.080       .  S
C1399      C1400   1.405       .  A
C1399      C1402   1.486       .  S
C1400      C1401   1.400       .  A
C1400      H1408   1.083       .  S
C1401      H1409   1.081       .  S
C1402      H1410   1.087       .  S
C1402      C1403   1.346   1_565  D
C1403      H1411   1.083       .  S
C1404      H1955   1.087       .  S
C1404      C1405   1.345   1_545  D
C1405      H1413   1.084       .  S
H1406      C1940   1.083       .  S
H1407      C1941   1.081       .  S
H1412      C1947   1.087       .  S
C1414      C1415   1.403       .  A
C1414      C1422   1.483       .  S
C1415      C1416   1.400       .  A
C1415      H1424   1.083       .  S
C1416      H1425   1.082       .  S
C1417      C1418   1.402   1_455  A
C1417      C1420   1.481       .  S
C1418      C1419   1.396       .  A
C1418      H1426   1.084       .  S
C1419      H1427   1.082       .  S
C1420      H1428   1.088   1_455  S
C1421      H1429   1.084       .  S
C1422      H1430   1.087       .  S
C1422      C1423   1.344       .  D
C1432      C1433   1.402       .  A
C1432      C1440   1.487       .  S
C1433      C1434   1.395       .  A
C1433      H1442   1.084       .  S
C1434      H1443   1.079       .  S
C1435      C1436   1.405       .  A
C1435      C1438   1.489       .  S
C1436      C1437   1.399       .  A
C1436      H1444   1.084       .  S
C1437      H1445   1.080       .  S
C1438      H1446   1.086       .  S
C1439      H1447   1.076       .  S
C1440      H1448   1.087       .  S
C1441      H1449   1.083       .  S
C1450      C1451   1.403       .  A
C1450      C1458   1.490       .  S
C1451      C1452   1.398       .  A
C1451      H1460   1.083       .  S
C1452      H1461   1.081       .  S
C1453      C1454   1.403       .  A
C1453      C1456   1.489       .  S
C1454      C1455   1.399       .  A
C1454      H1462   1.083       .  S
C1455      H1463   1.081       .  S
C1456      H1464   1.087       .  S
C1456      C1457   1.347       .  D
C1458      H1466   1.087       .  S
C1459      H1467   1.084       .  S
C1468      C1469   1.404   1_455  A
C1468      C1476   1.492       .  S
C1469      C1470   1.399       .  A
C1469      H1478   1.084       .  S
C1470      H1479   1.079       .  S
C1471      C1472   1.404       .  A
C1471      C1474   1.489       .  S
C1472      C1473   1.399       .  A
C1472      H1480   1.083       .  S
C1473      H1481   1.081       .  S
C1474      H1482   1.088       .  S
C1474      C1475   1.346       .  D
C1476      H1484   1.087   1_455  S
C1477      H1485   1.085       .  S
C1486      C1491   1.403       .  A
C1487      C1488   1.399       .  A
C1487      H1496   1.082       .  S
C1488      H1497   1.081       .  S
C1489      C1490   1.403       .  A
C1489      C1492   1.485       .  S
C1490      C1491   1.398       .  A
C1490      H1498   1.083       .  S
C1491      H1499   1.083       .  S
C1492      H1500   1.087       .  S
C1492      C1493   1.346       .  D
C1494      H1502   1.087       .  S
C1495      H1503   1.084       .  S
C1504      C1509   1.408       .  A
C1505      C1506   1.399       .  A
C1505      H1514   1.083       .  S
C1506      H1515   1.080       .  S
C1507      C1508   1.404       .  A
C1507      C1510   1.489       .  S
C1508      C1509   1.398       .  A
C1508      H1516   1.084       .  S
C1509      H1517   1.079       .  S
C1510      H1518   1.087       .  S
C1510      C1511   1.349       .  D
C1512      H1520   1.087       .  S
C1512      C1513   1.348   1_455  D
C1522      C1523   1.403   1_455  A
C1522      C1530   1.488       .  S
C1523      C1524   1.397       .  A
C1523      H1532   1.083       .  S
C1524      H1533   1.082       .  S
C1525      C1526   1.403       .  A
C1525      C1528   1.486       .  S
C1526      C1527   1.399       .  A
C1526      H1534   1.083       .  S
C1527      H1535   1.080       .  S
C1528      H1536   1.087       .  S
C1528      C1529   1.347       .  D
C1530      H1538   1.087   1_455  S
C1531      H1539   1.084       .  S
C1540      C1541   1.404       .  A
C1540      C1548   1.489       .  S
C1541      C1542   1.400       .  A
C1541      H1550   1.083       .  S
C1542      H1551   1.081       .  S
C1543      C1544   1.403       .  A
C1543      C1546   1.488       .  S
C1544      C1545   1.398       .  A
C1544      H1552   1.084   1_455  S
C1545      H1553   1.081       .  S
C1546      H1554   1.086   1_455  S
C1547      H1555   1.084       .  S
C1548      H1556   1.086       .  S
C1548      C1549   1.347       .  D
C1558      C1559   1.403       .  A
C1558      C1563   1.406       .  A
C1558      C1566   1.483       .  S
C1559      C1560   1.401       .  A
C1559      H1568   1.083       .  S
C1560      C1561   1.407       .  A
C1560      H1569   1.082       .  S
C1561      C1562   1.401       .  A
C1561      C1564   1.481       .  S
C1562      C1563   1.394       .  A
C1562      H1570   1.083       .  S
C1563      H1571   1.082       .  S
C1564      H1572   1.087       .  S
C1564      C1565   1.346       .  D
C1565      H1573   1.084       .  S
C1566      H1574   1.087       .  S
C1566      C1567   1.343       .  D
C1567      H1575   1.086       .  S
C1576      C1577   1.403       .  A
C1576      C1581   1.409       .  A
C1576      C1584   1.486       .  S
C1577      C1578   1.395       .  A
C1577      H1586   1.084       .  S
C1578      C1579   1.406       .  A
C1578      H1587   1.082       .  S
C1579      C1580   1.402       .  A
C1579      C1582   1.481       .  S
C1580      C1581   1.399       .  A
C1580      H1588   1.083       .  S
C1581      H1589   1.080       .  S
C1582      H1590   1.087       .  S
C1582      C1583   1.342       .  D
C1583      H1591   1.086       .  S
C1584      H1592   1.087       .  S
C1584      C1585   1.347       .  D
C1585      H1593   1.083       .  S
C1594      C1595   1.404       .  A
C1594      C1599   1.409       .  A
C1594      C1602   1.495       .  S
C1595      C1596   1.400       .  A
C1595      H1604   1.083       .  S
C1596      C1597   1.410       .  A
C1596      H1605   1.080       .  S
C1597      C1598   1.406       .  A
C1597      C1600   1.497       .  S
C1598      C1599   1.403       .  A
C1598      H1606   1.083       .  S
C1599      H1607   1.081       .  S
C1600      H1608   1.087       .  S
C1600      C1601   1.350       .  D
C1601      H1609   1.081       .  S
C1602      H1610   1.086       .  S
C1602      C1603   1.350       .  D
C1603      H1611   1.083       .  S
C1612      C1613   1.403       .  A
C1612      C1617   1.406       .  A
C1612      C1620   1.487       .  S
C1613      C1614   1.399       .  A
C1613      H1622   1.083       .  S
C1614      C1615   1.409       .  A
C1614      H1623   1.079       .  S
C1615      C1616   1.406       .  A
C1615      C1618   1.493       .  S
C1616      C1617   1.400       .  A
C1616      H1624   1.083       .  S
C1617      H1625   1.082       .  S
C1618      H1626   1.088       .  S
C1618      C1619   1.348       .  D
C1619      H1627   1.082       .  S
C1620      H1628   1.087       .  S
C1620      C1621   1.348       .  D
C1621      H1629   1.085       .  S
C1630      C1631   1.415       .  A
C1630      C1635   1.403       .  A
C1630      C2164   1.489       .  S
C1631      C1632   1.408       .  A
C1631      C2128   1.487       .  S
C1632      C1633   1.405       .  A
C1632      H1637   1.083       .  S
C1633      C1634   1.415       .  A
C1633      C2108   1.495       .  S
C1634      C1635   1.409       .  A
C1634      C2144   1.487       .  S
C1635      H1636   1.084       .  S
C1638      C1639   1.416       .  A
C1638      C1643   1.407       .  A
C1638      C2092   1.491       .  S
C1639      C1640   1.400       .  A
C1639      C2036   1.482       .  S
C1640      C1641   1.405       .  A
C1640      H1645   1.084       .  S
C1641      C1642   1.415       .  A
C1641      C2054   1.489       .  S
C1642      C1643   1.403       .  A
C1642      C2074   1.483       .  S
C1643      H1644   1.082       .  S
In1646     O1651   2.241   1_455  S
C1647      C2126   1.469       .  S
C1647      O1653   1.265       .  A
C1647      O1655   1.259       .  A
O1648      C1656   1.259       .  A
O1649      C1656   1.265       .  A
C1650      C2056   1.470       .  S
C1650      O1651   1.264       .  A
C1652      C2038   1.467       .  S
C1652      O1654   1.265       .  A
C1656      C2110   1.474       .  S
C1659      C1660   1.414       .  A
C1659      C1664   1.405       .  A
C1659      C1982   1.493       .  S
C1660      C1661   1.408       .  A
C1660      C2018   1.487       .  S
C1661      C1662   1.409       .  A
C1661      H1666   1.083       .  S
C1662      C1663   1.416       .  A
C1662      C2000   1.492       .  S
C1663      C1664   1.404       .  A
C1663      C1964   1.487       .  S
In1667     O1672   2.251   1_565  S
In1667     O1674   2.252       .  S
C1668      C1984   1.475       .  S
C1668      O1674   1.257       .  A
O1670      C1677   1.263       .  A
C1671      C1928   1.474       .  S
C1671      O1678   1.259       .  A
C1673      C1946   1.473       .  S
C1673      O1675   1.260       .  A
C1677      C1966   1.471       .  S
C1680      C1681   1.418       .  A
C1680      C1685   1.404       .  A
C1680      C1912   1.487       .  S
C1681      C1682   1.407       .  A
C1681      C1948   1.490       .  S
C1682      C1683   1.405       .  A
C1682      H1687   1.082       .  S
C1683      C1684   1.413       .  A
C1683      C1930   1.490       .  S
C1684      C1685   1.405       .  A
C1684      C1894   1.487       .  S
C1685      H1686   1.084       .  S
C1688      C1689   1.414       .  A
C1688      C1693   1.405       .  A
C1688      C1822   1.489       .  S
C1689      C1690   1.406       .  A
C1689      C1874   1.488       .  S
C1690      C1691   1.403       .  A
C1690      H1695   1.084       .  S
C1691      C1692   1.419       .  A
C1691      C1856   1.486       .  S
C1692      C1693   1.404       .  A
C1692      C1838   1.482       .  S
C1693      H1694   1.084       .  S
C1696      C1697   1.414       .  A
C1696      C1701   1.400   1_655  A
C1696      C2162   1.483       .  S
C1697      C1698   1.408       .  A
C1697      C1876   1.487       .  S
C1698      H1703   1.084       .  S
C1699      C1700   1.416       .  A
C1699      C1858   1.487       .  S
C1700      C2146   1.487       .  S
C1701      H1702   1.084   1_565  S
In1704     O1709   2.242       .  S
C1705      C1840   1.475       .  S
C1705      O1711   1.264       .  A
C1705      O1713   1.258       .  A
O1706      C1714   1.260   1_545  A
O1707      C1714   1.267       .  A
C1708      C1786   1.475       .  S
C1708      O1709   1.264       .  A
C1710      C1804   1.473       .  S
C1710      O1712   1.265   1_545  A
C1714      C1820   1.474       .  S
C1717      C1718   1.415       .  A
C1717      C1722   1.407       .  A
C1717      C1802   1.492       .  S
C1718      C1719   1.408       .  A
C1718      C1768   1.495   1_565  S
C1719      C1720   1.405       .  A
C1719      H1724   1.082       .  S
C1720      C1721   1.418   1_565  A
C1720      C1750   1.488       .  S
C1721      C1722   1.408   1_545  A
C1721      C1784   1.489       .  S
C1722      H1723   1.083       .  S
C1725      C1726   1.418   1_554  A
C1725      C1766   1.489       .  S
C1726      C1910   1.487       .  S
C1727      C1728   1.406   1_456  A
C1727      H1732   1.084       .  S
C1728      C1729   1.416       .  A
C1728      C1892   1.490   1_554  S
C1729      C1730   1.403   1_655  A
C1729      C1748   1.486       .  S
C1730      H1731   1.083       .  S
C1733      C1734   1.415       .  A
C1733      C2090   1.489       .  S
C1734      C2020   1.486       .  S
C1735      C1736   1.408       .  A
C1735      H1740   1.084       .  S
C1736      C1737   1.416       .  A
C1736      C2002   1.491       .  S
C1737      C1738   1.401       .  A
C1737      C2072   1.483       .  S
C1738      H1739   1.084       .  S
C1741      C1742   1.402       .  A
C1741      C1746   1.410       .  A
C1741      C1749   1.490       .  S
C1742      C1743   1.397       .  A
C1742      H1751   1.083       .  S
C1743      C1744   1.408       .  A
C1743      H1752   1.081       .  S
C1744      C1745   1.403       .  A
C1745      C1746   1.400       .  A
C1745      H1753   1.084       .  S
C1746      H1754   1.081       .  S
C1747      H1755   1.087   1_545  S
C1748      H1756   1.085       .  S
C1749      H1757   1.087       .  S
C1750      H1758   1.084       .  S
C1759      C1764   1.408       .  A
C1759      C1767   1.487       .  S
C1760      H1769   1.083       .  S
C1761      C1762   1.407       .  A
C1762      C1763   1.403       .  A
C1762      C1765   1.485       .  S
C1763      C1764   1.398   1_545  A
C1763      H1771   1.084   1_545  S
C1764      H1772   1.082       .  S
C1765      H1773   1.086   1_545  S
C1766      H1774   1.084       .  S
C1767      C1768   1.347   1_565  D
C1768      H1776   1.085       .  S
C1777      C1782   1.409       .  A
C1777      C1785   1.493       .  S
C1778      H1787   1.084       .  S
C1779      C1780   1.406   1_565  A
C1780      C1781   1.404       .  A
C1780      C1783   1.488       .  S
C1781      C1782   1.400       .  A
C1781      H1789   1.083       .  S
C1782      H1790   1.080       .  S
C1783      H1791   1.087       .  S
C1783      C1784   1.348       .  D
C1795      C1796   1.403       .  A
C1795      C1803   1.487       .  S
C1796      C1797   1.401       .  A
C1796      H1805   1.083       .  S
C1797      H1806   1.081       .  S
C1798      C1799   1.401       .  A
C1798      C1801   1.485       .  S
C1799      C1800   1.397       .  A
C1799      H1807   1.084       .  S
C1800      H1808   1.082       .  S
C1801      H1809   1.087       .  S
C1802      H1810   1.085       .  S
C1803      H1811   1.087       .  S
C1803      C1804   1.344   1_565  D
C1813      C1814   1.402       .  A
C1813      C1818   1.407       .  A
C1813      C1821   1.486       .  S
C1814      C1815   1.399       .  A
C1814      H1823   1.084       .  S
C1815      C1816   1.410       .  A
C1815      H1824   1.081       .  S
C1816      C1817   1.403       .  A
C1816      C1819   1.490       .  S
C1817      C1818   1.399       .  A
C1817      H1825   1.083       .  S
C1818      H1826   1.082       .  S
C1819      H1827   1.087       .  S
C1819      C1820   1.344       .  D
C1820      H1828   1.084       .  S
C1821      H1829   1.087       .  S
C1821      C1822   1.345       .  D
C1822      H1830   1.084       .  S
C1831      C1832   1.405       .  A
C1831      C1836   1.410       .  A
C1831      C1839   1.491       .  S
C1832      C1833   1.401       .  A
C1832      H1841   1.083       .  S
C1833      C1834   1.407       .  A
C1833      H1842   1.082       .  S
C1834      C1835   1.401       .  A
C1834      C1837   1.485       .  S
C1835      C1836   1.397       .  A
C1835      H1843   1.084       .  S
C1836      H1844   1.081       .  S
C1837      H1845   1.087       .  S
C1837      C1838   1.344       .  D
C1838      H1846   1.086       .  S
C1839      H1847   1.087       .  S
C1839      C1840   1.345       .  D
C1840      H1848   1.084       .  S
C1849      C1850   1.404       .  A
C1849      C1854   1.410       .  A
C1849      C1857   1.492       .  S
C1850      C1851   1.398       .  A
C1850      H1859   1.084       .  S
C1851      C1852   1.408       .  A
C1851      H1860   1.081       .  S
C1852      C1853   1.403       .  A
C1852      C1855   1.489       .  S
C1853      C1854   1.399       .  A
C1853      H1861   1.084       .  S
C1854      H1862   1.079       .  S
C1855      H1863   1.086       .  S
C1855      C1856   1.346       .  D
C1856      H1864   1.084       .  S
C1857      H1865   1.087       .  S
C1857      C1858   1.348       .  D
C1858      H1866   1.082       .  S
C1867      C1868   1.403       .  A
C1867      C1872   1.408       .  A
C1867      C1875   1.485       .  S
C1868      C1869   1.399       .  A
C1868      H1877   1.083       .  S
C1869      C1870   1.407       .  A
C1869      H1878   1.082       .  S
C1870      C1871   1.402       .  A
C1870      C1873   1.484       .  S
C1871      C1872   1.396       .  A
C1871      H1879   1.084       .  S
C1872      H1880   1.082       .  S
C1873      H1881   1.087       .  S
C1873      C1874   1.346       .  D
C1874      H1882   1.082       .  S
C1875      H1883   1.087       .  S
C1875      C1876   1.345       .  D
C1876      H1884   1.081       .  S
C1885      C1886   1.403       .  A
C1885      C1890   1.408       .  A
C1885      C1893   1.487       .  S
C1886      C1887   1.400       .  A
C1886      H1895   1.083       .  S
C1887      C1888   1.409       .  A
C1887      H1896   1.081       .  S
C1888      C1889   1.402       .  A
C1888      C1891   1.486       .  S
C1889      C1890   1.396       .  A
C1889      H1897   1.084       .  S
C1890      H1898   1.081       .  S
C1893      H1901   1.087       .  S
C1894      H1902   1.083       .  S
C1903      C1908   1.409   1_545  A
C1904      C1905   1.398       .  A
C1904      H1913   1.084       .  S
C1905      H1914   1.081       .  S
C1906      C1907   1.406   1_545  A
C1906      C1909   1.495       .  S
C1907      C1908   1.401       .  A
C1907      H1915   1.083       .  S
C1908      H1916   1.080       .  S
C1909      H1917   1.087   1_545  S
C1910      H1918   1.084       .  S
C1911      H1919   1.087       .  S
C1911      C1912   1.346       .  D
C1921      C1922   1.402       .  A
C1921      C1926   1.408   1_565  A
C1921      C1929   1.488       .  S
C1922      C1923   1.397       .  A
C1922      H1931   1.083       .  S
C1923      C1924   1.410       .  A
C1923      H1932   1.079       .  S
C1925      H1933   1.083       .  S
C1927      H1935   1.087       .  S
C1927      C1928   1.346       .  D
C1929      H1937   1.086       .  S
C1930      H1938   1.084       .  S
C1939      C1940   1.404       .  A
C1939      C1944   1.408       .  A
C1939      C1947   1.487       .  S
C1940      C1941   1.397       .  A
C1941      C1942   1.407       .  A
C1942      C1943   1.404       .  A
C1942      C1945   1.486       .  S
C1943      C1944   1.399       .  A
C1943      H1951   1.083       .  S
C1944      H1952   1.081       .  S
C1945      H1953   1.087       .  S
C1945      C1946   1.346       .  D
C1946      H1954   1.084       .  S
C1947      C1948   1.348       .  D
C1948      H1956   1.084       .  S
C1957      C1958   1.403       .  A
C1957      C1965   1.484       .  S
C1958      C1959   1.400       .  A
C1958      H1967   1.083       .  S
C1959      H1968   1.082       .  S
C1960      C1961   1.402       .  A
C1960      C1963   1.480       .  S
C1961      C1962   1.396       .  A
C1961      H1969   1.083       .  S
C1962      H1970   1.082       .  S
C1963      H1971   1.087       .  S
C1964      H1972   1.084       .  S
C1965      H1973   1.087       .  S
C1965      C1966   1.344       .  D
C1975      C1976   1.404       .  A
C1975      C1983   1.490       .  S
C1976      C1977   1.397       .  A
C1976      H1985   1.084       .  S
C1977      H1986   1.081       .  S
C1978      C1979   1.404       .  A
C1978      C1981   1.485       .  S
C1979      C1980   1.401       .  A
C1979      H1987   1.083       .  S
C1980      H1988   1.081       .  S
C1981      H1989   1.086       .  S
C1982      H1990   1.083       .  S
C1983      H1991   1.087       .  S
C1984      H1992   1.084       .  S
C1993      C1994   1.404       .  A
C1993      C2001   1.494       .  S
C1994      C1995   1.400       .  A
C1994      H2003   1.083       .  S
C1995      H2004   1.079       .  S
C1996      C1997   1.404       .  A
C1996      C1999   1.490       .  S
C1997      C1998   1.401       .  A
C1997      H2005   1.083       .  S
C1998      H2006   1.081       .  S
C1999      H2007   1.086       .  S
C1999      C2000   1.348       .  D
C2001      H2009   1.087       .  S
C2002      H2010   1.084       .  S
C2011      C2012   1.403   1_455  A
C2011      C2019   1.482       .  S
C2012      C2013   1.397       .  A
C2012      H2021   1.083       .  S
C2013      H2022   1.083       .  S
C2014      C2015   1.404       .  A
C2014      C2017   1.486       .  S
C2015      C2016   1.400       .  A
C2015      H2023   1.083       .  S
C2016      H2024   1.083       .  S
C2017      H2025   1.087       .  S
C2017      C2018   1.345       .  D
C2019      H2027   1.087   1_455  S
C2020      H2028   1.086       .  S
C2029      C2034   1.402       .  A
C2030      C2031   1.394       .  A
C2030      H2039   1.082   1_455  S
C2031      H2040   1.079   1_455  S
C2032      C2033   1.404       .  A
C2032      C2035   1.484       .  S
C2033      C2034   1.399       .  A
C2033      H2041   1.083       .  S
C2034      H2042   1.083       .  S
C2035      H2043   1.087       .  S
C2035      C2036   1.345       .  D
C2037      H2045   1.087       .  S
C2038      H2046   1.085       .  S
C2047      C2052   1.406       .  A
C2048      C2049   1.395       .  A
C2048      H2057   1.084       .  S
C2049      H2058   1.082       .  S
C2050      C2051   1.403       .  A
C2050      C2053   1.489       .  S
C2051      C2052   1.395       .  A
C2051      H2059   1.083       .  S
C2052      H2060   1.080       .  S
C2053      H2061   1.087       .  S
C2053      C2054   1.347       .  D
C2055      H2063   1.088       .  S
C2055      C2056   1.345   1_455  D
C2065      C2066   1.403   1_455  A
C2065      C2073   1.486       .  S
C2066      C2067   1.398       .  A
C2066      H2075   1.083       .  S
C2067      H2076   1.082       .  S
C2068      C2069   1.402       .  A
C2068      C2071   1.484       .  S
C2069      C2070   1.397       .  A
C2069      H2077   1.084       .  S
C2070      H2078   1.081       .  S
C2071      H2079   1.087       .  S
C2071      C2072   1.345       .  D
C2073      H2081   1.087   1_455  S
C2074      H2082   1.084       .  S
C2083      C2084   1.403       .  A
C2083      C2091   1.484       .  S
C2084      C2085   1.398       .  A
C2084      H2093   1.084       .  S
C2085      H2094   1.082       .  S
C2086      C2087   1.402       .  A
C2086      C2089   1.483       .  S
C2087      C2088   1.397       .  A
C2087      H2095   1.083       .  S
C2088      H2096   1.082       .  S
C2089      H2097   1.086       .  S
C2090      H2098   1.085       .  S
C2091      H2099   1.085       .  S
C2091      C2092   1.347       .  D
C2101      C2102   1.404       .  A
C2101      C2106   1.406       .  A
C2101      C2109   1.488       .  S
C2102      C2103   1.403       .  A
C2102      H2111   1.083       .  S
C2103      C2104   1.410       .  A
C2103      H2112   1.081       .  S
C2104      C2105   1.403       .  A
C2104      C2107   1.490       .  S
C2105      C2106   1.396       .  A
C2105      H2113   1.083       .  S
C2106      H2114   1.082       .  S
C2107      H2115   1.087       .  S
C2107      C2108   1.348       .  D
C2108      H2116   1.082       .  S
C2109      H2117   1.087       .  S
C2109      C2110   1.345       .  D
C2110      H2118   1.086       .  S
C2119      C2120   1.401       .  A
C2119      C2124   1.408       .  A
C2119      C2127   1.482       .  S
C2120      C2121   1.393       .  A
C2120      H2129   1.083       .  S
C2121      C2122   1.406       .  A
C2121      H2130   1.082       .  S
C2122      C2123   1.403       .  A
C2122      C2125   1.484       .  S
C2123      C2124   1.401       .  A
C2123      H2131   1.083       .  S
C2124      H2132   1.081       .  S
C2125      H2133   1.087       .  S
C2125      C2126   1.343       .  D
C2126      H2134   1.085       .  S
C2127      H2135   1.087       .  S
C2127      C2128   1.344       .  D
C2128      H2136   1.085       .  S
C2137      C2138   1.402       .  A
C2137      C2142   1.407       .  A
C2137      C2145   1.482       .  S
C2138      C2139   1.396       .  A
C2138      H2147   1.084       .  S
C2139      C2140   1.407       .  A
C2139      H2148   1.082       .  S
C2140      C2141   1.402       .  A
C2140      C2143   1.482       .  S
C2141      C2142   1.398       .  A
C2141      H2149   1.083       .  S
C2142      H2150   1.082       .  S
C2143      H2151   1.086       .  S
C2143      C2144   1.346       .  D
C2144      H2152   1.083       .  S
C2145      H2153   1.086       .  S
C2145      C2146   1.346       .  D
C2146      H2154   1.085       .  S
C2155      C2156   1.404       .  A
C2155      C2160   1.407       .  A
C2155      C2163   1.490       .  S
C2156      C2157   1.400       .  A
C2156      H2165   1.083       .  S
C2157      C2158   1.409       .  A
C2157      H2166   1.080       .  S
C2158      C2159   1.405       .  A
C2158      C2161   1.492       .  S
C2159      C2160   1.400       .  A
C2159      H2167   1.083       .  S
C2160      H2168   1.081       .  S
C2161      H2169   1.088       .  S
C2161      C2162   1.347       .  D
C2162      H2170   1.082       .  S
C2163      H2171   1.087       .  S
C2163      C2164   1.348       .  D
C2164      H2172   1.085       .  S
