geometry optimzed in LAMMPS
_audit_creation_date              2020-11-30 
_audit_creation_method            'lammps2cif' 
_symmetry_space_group_name_H-M    'P1' 
_symmetry_Int_Tables_number       1 
_symmetry_cell_setting            triclinic 
loop_ 
_symmetry_equiv_pos_as_xyz 
  x,y,z 
_cell_length_a                    35.23735999 
_cell_length_b                    35.25608265016601 
_cell_length_c                    26.381425365660714 
_cell_angle_alpha                 89.67630123796843 
_cell_angle_beta                  90.6517614675991 
_cell_angle_gamma                 119.99571637251957 
loop_ 
_atom_site_label 
_atom_site_type_symbol 
_atom_site_fract_x 
_atom_site_fract_y 
_atom_site_fract_z 
_atom_site_charge 
O1          O  0.45528521  0.43719726  0.33104935    -0.69800
O2          O  0.08023024  0.02621349  0.33575632    -0.70000
O3          O  0.02595981  0.48861215  0.39554176    -0.69900
O4          O  0.01134151  0.49147527  0.25285511    -0.69900
O5          O  0.49543005  0.02203734  0.26014106    -0.69900
O6          O  0.50240617  0.02707758  0.40435775    -0.69900
O7          O  0.05177664  0.06835233  0.34032273    -0.69800
O8          O  0.42748652  0.48004256  0.33102620    -0.70000
V9          V  0.01804346  0.49067980  0.32433345     1.35200
V10         V  0.49933686  0.02380114  0.33226005     1.35200
C11         C  0.42190606  0.44167509  0.33110128     0.79400
C12         C  0.08539198  0.06436218  0.33720015     0.79500
C13         C  0.01131720  0.50643378  0.42483477     0.79400
C14         C  0.99804675  0.51575941  0.23358923     0.79300
O15         O  0.08972306  0.26336914  0.32896991    -0.69800
O16         O  0.48050722  0.18296096  0.32565175    -0.70000
O17         O  0.02719226  0.20763663  0.26368039    -0.69900
O18         O  0.03881888  0.21970127  0.40718812    -0.69900
O19         O  0.49487492  0.26834508  0.39870360    -0.69900
O20         O  0.48975088  0.27236531  0.25524709    -0.69900
O21         O  0.44032982  0.21375880  0.32664922    -0.69800
O22         O  0.06122192  0.30554521  0.33132026    -0.70000
V23         V  0.03224724  0.21428230  0.33542514     1.35200
V24         V  0.49296459  0.26942524  0.32683161     1.35200
C25         C  0.09491686  0.30153360  0.32963264     0.79400
C26         C  0.44299732  0.17920692  0.32642379     0.79500
C27         C  0.01365313  0.22895824  0.23796182     0.79400
C28         C  0.02512263  0.24158382  0.43073813     0.79300
O29         O  0.28693462  0.07692228  0.33855428    -0.69800
O30         O  0.19273269  0.45785384  0.33178846    -0.70000
O31         O  0.24327465  0.01601920  0.40981274    -0.69900
O32         O  0.23169120  0.02317352  0.26704267    -0.69900
O33         O  0.27523126  0.46611197  0.26000305    -0.69900
O34         O  0.28481937  0.47470662  0.40359877    -0.69900
O35         O  0.22445620  0.41858813  0.33638542    -0.69800
O36         O  0.32873454  0.04962356  0.32212023    -0.70000
V37         V  0.23818106  0.01903814  0.33825364     1.35200
V38         V  0.27956735  0.47134128  0.33172910     1.35200
C39         C  0.32469622  0.08285520  0.32988406     0.79400
C40         C  0.18959123  0.42061399  0.33418857     0.79500
C41         C  0.26917737  0.00434684  0.42830301     0.79400
C42         C  0.24782007  0.00709866  0.23729621     0.79300
O43         O  0.21410885  0.18138444  0.33171533    -0.69800
O44         O  0.32515920  0.28537515  0.32570714    -0.70000
O45         O  0.27562626  0.23252311  0.39998727    -0.69900
O46         O  0.26441738  0.23452186  0.25735855    -0.69900
O47         O  0.23687583  0.27730554  0.26438457    -0.69900
O48         O  0.24004139  0.26775663  0.40804049    -0.69900
O49         O  0.29393940  0.32435357  0.33782137    -0.69800
O50         O  0.18260395  0.22086664  0.33455997    -0.70000
V51         V  0.26915479  0.23415075  0.32881504     1.35200
V52         V  0.23889217  0.27178850  0.33609056     1.35200
C53         C  0.17937175  0.18354796  0.33362779     0.79400
C54         C  0.32843725  0.32248581  0.33125101     0.79500
C55         C  0.25929958  0.24924161  0.42830366     0.79400
C56         C  0.25006020  0.25726889  0.23648041     0.79300
O57         O  0.46244705  0.04820845  0.99127555    -0.69800
O58         O  0.06824637  0.04418431  0.00303489    -0.70000
O59         O  0.01095360  0.03713538  0.93035359    -0.69900
O60         O  0.01737700  0.05117710  0.07371549    -0.69900
O61         O  0.46589234  0.45108183  0.06844379    -0.69900
O62         O  0.45624597  0.45418780  0.92564868    -0.69900
O63         O  0.01098774  0.44734889  0.99073656    -0.69800
O64         O  0.41131109  0.45984649  0.00314957    -0.70000
V65         V  0.01370838  0.04295907  0.00215181     1.35200
V66         V  0.46200081  0.45419818  0.99704526     1.35200
C67         C  0.41551260  0.49766831  0.00180507     0.79400
C68         C  0.04949334  0.47957237  0.99439626     0.79500
C69         C  0.98893083  0.99940096  0.91084576     0.79400
C70         C  0.00303063  0.01806540  0.10237287     0.79300
O71         O  0.02830660  0.28625311  0.92680167    -0.69800
O72         O  0.02276463  0.28844089  0.07063090    -0.70000
O73         O  0.08139421  0.29156054  0.00357562    -0.69900
O74         O  0.45666988  0.26214140  0.99197435    -0.69900
O75         O  0.43192294  0.19199808  0.99210662    -0.69900
O76         O  0.05010687  0.22060366  0.00034482    -0.69900
O77         O  0.49436745  0.19951912  0.05826051    -0.69800
O78         O  0.48630048  0.20628083  0.91512084    -0.70000
V79         V  0.02486387  0.28588504  0.99879689     1.35200
V80         V  0.49083368  0.20425334  0.98676885     1.35200
C81         C  0.01054257  0.25023545  0.90315354     0.79400
C82         C  0.00971878  0.25387630  0.09643324     0.79500
C83         C  0.08469602  0.25745728  0.00264445     0.79400
C84         C  0.42441400  0.22349845  0.99263854     0.79300
O85         O  0.26008619  0.44555058  0.00100069    -0.69800
O86         O  0.16228646  0.46270155  0.00557313    -0.70000
O87         O  0.20466121  0.44798646  0.93150585    -0.69900
O88         O  0.21846380  0.46110528  0.07518086    -0.69900
O89         O  0.24779686  0.01150224  0.07269556    -0.69900
O90         O  0.24956870  0.01248630  0.92851548    -0.69900
O91         O  0.19376576  0.01107440  0.99937912    -0.69800
O92         O  0.30282702  0.01263136  0.00177626    -0.70000
V93         V  0.21211205  0.45561044  0.00320141     1.35200
V94         V  0.24774449  0.01061329  0.00057705     1.35200
C95         C  0.30375702  0.97730212  0.99813646     0.79400
C96         C  0.15790709  0.97520604  0.00265826     0.79500
C97         C  0.22711479  0.48039853  0.90287382     0.79400
C98         C  0.23947453  0.49896034  0.09471499     0.79300
O99         O  0.32218730  0.27589890  0.00018879    -0.69800
O100        O  0.21021773  0.26567833  0.99890218    -0.70000
O101        O  0.26565740  0.27016804  0.07179310    -0.69900
O102        O  0.26591942  0.27034434  0.92724673    -0.69900
O103        O  0.22984640  0.19913509  0.92818492    -0.69900
O104        O  0.24128755  0.20004281  0.07082176    -0.69900
O105        O  0.17976092  0.19495211  0.00555536    -0.69800
O106        O  0.29225048  0.20522206  0.99349682    -0.70000
V107        V  0.26551398  0.26923124  0.99952824     1.35200
V108        V  0.23640539  0.20114644  0.99949902     1.35200
C109        C  0.32645994  0.24260189  0.99611535     0.79400
C110        C  0.17597298  0.22876877  0.00308178     0.79500
C111        C  0.25388698  0.23481284  0.09570125     0.79400
C112        C  0.24629421  0.23439252  0.90337385     0.79300
O113        O  0.03251441  0.47160469  0.66289717    -0.69800
O114        O  0.03066293  0.08168982  0.66394757    -0.70000
O115        O  0.03741013  0.03453917  0.73950868    -0.69900
O116        O  0.02418940  0.02108282  0.59713929    -0.69900
O117        O  0.44820625  0.49526533  0.59650906    -0.69900
O118        O  0.46104445  0.49645296  0.73986310    -0.69900
O119        O  0.48653902  0.06938823  0.67031270    -0.69800
O120        O  0.45494711  0.44239790  0.66528012    -0.70000
V121        V  0.02919326  0.02691639  0.66851832     1.35200
V122        V  0.45582112  0.49645452  0.66808838     1.35200
C123        C  0.99509014  0.43755327  0.66379760     0.79400
C124        C  0.99546642  0.08260596  0.66988253     0.79500
C125        C  0.00452135  0.01718047  0.76801028     0.79400
C126        C  0.98686876  0.00465398  0.57622638     0.79300
O127        O  0.48324273  0.31699419  0.66405745    -0.69800
O128        O  0.47044341  0.20384736  0.65988884    -0.70000
O129        O  0.48278805  0.26058736  0.73349627    -0.69900
O130        O  0.47107219  0.25988824  0.59010893    -0.69900
O131        O  0.05464687  0.28521479  0.59015395    -0.69900
O132        O  0.06724816  0.29962897  0.73404290    -0.69900
O133        O  0.06310495  0.24022654  0.66713196    -0.69800
O134        O  0.05995588  0.34571156  0.65675522    -0.70000
V135        V  0.47824225  0.26098825  0.66171136     1.35200
V136        V  0.05994067  0.29214142  0.66216529     1.35200
C137        C  0.02487243  0.34641970  0.66318909     0.79400
C138        C  0.02811478  0.20375907  0.66764117     0.79500
C139        C  0.52027179  0.27870425  0.75436004     0.79400
C140        C  0.50355798  0.26960064  0.56211749     0.79300
O141        O  0.29583411  0.02343093  0.73834587    -0.69800
O142        O  0.28814586  0.01688443  0.59358827    -0.70000
O143        O  0.29602620  0.07553619  0.66365141    -0.69900
O144        O  0.27905220  0.46092125  0.66587996    -0.69900
O145        O  0.20800190  0.42971825  0.66395532    -0.69900
O146        O  0.22542844  0.04437839  0.67209887    -0.69900
O147        O  0.20939684  0.48639564  0.59421748    -0.69800
O148        O  0.21509292  0.48421766  0.73838106    -0.70000
V149        V  0.29098800  0.01962676  0.66605060     1.35200
V150        V  0.21353025  0.48591952  0.66622037     1.35200
C151        C  0.25179338  0.50264218  0.76112635     0.79400
C152        C  0.24359038  0.49926784  0.56815547     0.79500
C153        C  0.26229625  0.07903988  0.66762935     0.79400
C154        C  0.24197446  0.42628995  0.66516956     0.79300
O155        O  0.29654128  0.32437211  0.65796546    -0.69800
O156        O  0.27929324  0.20896676  0.66467010    -0.70000
O157        O  0.27910559  0.26107896  0.59000692    -0.69900
O158        O  0.29700085  0.27278506  0.73254891    -0.69900
O159        O  0.22657662  0.24163493  0.74287347    -0.69900
O160        O  0.21012958  0.23954516  0.60024114    -0.69900
O161        O  0.20898641  0.18245834  0.66963749    -0.69800
O162        O  0.22741555  0.29810802  0.67348437    -0.70000
V163        V  0.28667067  0.26620564  0.66145992     1.35200
V164        V  0.21960192  0.24090089  0.67139125     1.35200
C165        C  0.26484615  0.33084496  0.66529236     0.79400
C166        C  0.24110658  0.17599191  0.66756341     0.79500
C167        C  0.24185610  0.24972684  0.57086310     0.79400
C168        C  0.26470323  0.25861714  0.76195079     0.79300
C169        C  0.27145941  0.37558670  0.66413353    -0.14500
C170        C  0.23728843  0.38242133  0.66616975    -0.29600
H171        H  0.30460511  0.40308672  0.66088913     0.14600
H172        H  0.20418658  0.35464860  0.66834168     0.15100
C173        C  0.23381709  0.13086652  0.66870831    -0.14500
C174        C  0.26744553  0.12321744  0.66683147    -0.29600
H175        H  0.20044118  0.10366387  0.67115710     0.14600
H176        H  0.30068207  0.15068773  0.66418605     0.15100
C177        C  0.02623776  0.38890408  0.66169725    -0.14500
C178        C  0.99068539  0.39353238  0.66466287    -0.29600
H179        H  0.55655527  0.42349393  0.65215903     0.14600
H180        H  0.95825024  0.36490554  0.66786978     0.15100
C181        C  0.99409899  0.12362917  0.66931370    -0.14500
C182        C  0.03028642  0.16310955  0.66775355    -0.29600
H183        H  0.56461869  0.17418771  0.65852064     0.14600
H184        H  0.06235859  0.16578413  0.66664459     0.15100
C185        C  0.24089267  0.23263597  0.84806242    -0.14500
C186        C  0.27146039  0.26204417  0.81722291    -0.29600
H187        H  0.21171126  0.20487135  0.83206837     0.14600
H188        H  0.30245315  0.28764767  0.83262005     0.15100
C189        C  0.25511344  0.50490535  0.81688909    -0.14500
C190        C  0.22333789  0.47578023  0.84715959    -0.29600
H191        H  0.28523090  0.53091574  0.83354901     0.14600
H192        H  0.20110794  0.95014210  0.82901004     0.15100
C193        C  0.37902878  0.21526981  0.99374485    -0.14500
C194        C  0.37086662  0.24859413  0.99463478    -0.29600
H195        H  0.35216012  0.18162912  0.99386968     0.14600
H196        H  0.39801183  0.28211809  0.99489309     0.15100
C197        C  0.12800010  0.26082818  0.00364497    -0.14500
C198        C  0.13256699  0.22515067  0.00445692    -0.29600
H199        H  0.15672303  0.29338979  0.00310396     0.14600
H200        H  0.10388233  0.19258201  0.00553865     0.15100
C201        C  0.00904662  0.24868621  0.84717400    -0.14500
C202        C  0.52488568  0.27917126  0.80999036    -0.29600
H203        H  0.47145671  0.21542609  0.81868515     0.14600
H204        H  0.06596224  0.30997524  0.83529116     0.15100
C205        C  0.34546692  0.97682130  0.99737014    -0.14500
C206        C  0.37749575  0.50423212  0.00248289    -0.29600
H207        H  0.32977599  0.43719285  0.00147289     0.14600
H208        H  0.38656180  0.04529091  0.99345631     0.15100
C209        C  0.08738408  0.47273194  0.99485993    -0.14500
C210        C  0.11503740  0.97356636  0.00431997    -0.29600
H211        H  0.14100328  0.04177413  0.00115414     0.14600
H212        H  0.13486252  0.53998576  0.99429295     0.15100
C213        C  0.01084970  0.02288604  0.82316482    -0.14500
C214        C  0.98250947  0.99330060  0.85569767    -0.29600
H215        H  0.04048814  0.05125770  0.83731794     0.14600
H216        H  0.44477922  0.46138995  0.82886499     0.15100
C217        C  0.26391995  0.24772422  0.48357293    -0.14500
C218        C  0.23555676  0.24939672  0.51560281    -0.29600
H219        H  0.29079848  0.24395957  0.49825364     0.14600
H220        H  0.20694871  0.25009520  0.50100070     0.15100
C221        C  0.24937828  0.26079441  0.18084355    -0.14500
C222        C  0.25485591  0.23312202  0.15124776    -0.29600
H223        H  0.24359692  0.28568794  0.16403271     0.14600
H224        H  0.25772869  0.20650858  0.16827117     0.15100
C225        C  0.27595972  0.00405596  0.48364082    -0.14500
C226        C  0.24090733  0.49812878  0.51227317    -0.29600
H227        H  0.29653467  0.49153107  0.50214853     0.14600
H228        H  0.21630642  0.00041198  0.50150695     0.15100
C229        C  0.24476174  0.50538450  0.15001143    -0.14500
C230        C  0.25301823  0.47931961  0.17974537    -0.29600
H231        H  0.23785311  0.94704305  0.16947705     0.14600
H232        H  0.25606865  0.45294342  0.16280299     0.15100
C233        C  0.03219202  0.24816968  0.48609576    -0.14500
C234        C  0.01051932  0.26256825  0.51437134    -0.29600
H235        H  0.54990403  0.25385079  0.49309247     0.14600
H236        H  0.98495428  0.26717538  0.49715266     0.15100
C237        C  0.40400154  0.13498772  0.32656056    -0.14500
C238        C  0.36288515  0.12770610  0.32931442    -0.29600
H239        H  0.40955471  0.10735786  0.32457451     0.14600
H240        H  0.35710230  0.15512960  0.33226382     0.15100
C241        C  0.14578885  0.38106878  0.33388853    -0.14500
C242        C  0.13940612  0.34031850  0.32952091    -0.29600
H243        H  0.11773089  0.38590732  0.33635227     0.14600
H244        H  0.16729135  0.33524456  0.32668450     0.15100
C245        C  0.01012709  0.25606067  0.15240816    -0.14500
C246        C  0.01112955  0.22541055  0.18202611    -0.29600
H247        H  0.01200786  0.28487984  0.16965269     0.14600
H248        H  0.49806937  0.28287127  0.15645661     0.15100
C249        C  0.98259978  0.00201378  0.52053514    -0.14500
C250        C  0.01333777  0.00088197  0.49199410    -0.29600
H251        H  0.95365596  0.00001982  0.50285471     0.14600
H252        H  0.53024456  0.49820757  0.50005062     0.15100
C253        C  0.37758493  0.40289667  0.33165976    -0.14500
C254        C  0.37184815  0.36221852  0.33005845    -0.29600
H255        H  0.34952206  0.40775985  0.33357677     0.14600
H256        H  0.40006754  0.35765582  0.32743185     0.15100
C257        C  0.13569426  0.14398654  0.33511548    -0.14500
C258        C  0.12967657  0.10321447  0.33518627    -0.29600
H259        H  0.10754381  0.14875332  0.33655740     0.14600
H260        H  0.15767232  0.09821974  0.33364862     0.15100
C261        C  0.00627064  0.02308780  0.15794741    -0.14500
C262        C  0.00457688  0.99141360  0.18795915    -0.29600
H263        H  0.50743572  0.05438926  0.16711420     0.14600
H264        H  0.99674738  0.54871795  0.16261310     0.15100
O265        O  0.46795689  0.93224098  0.34107209    -0.69800
O266        O  0.07503053  0.53999853  0.32009451    -0.70000
O267        O  0.02742050  0.98027087  0.41228189    -0.69900
O268        O  0.01892612  0.97203735  0.26893058    -0.69900
O269        O  0.48608675  0.53548170  0.26316397    -0.69900
O270        O  0.48439526  0.52384159  0.40617896    -0.69900
O271        O  0.04726013  0.58159905  0.33555133    -0.69800
O272        O  0.44130688  0.97600657  0.33605916    -0.70000
V273        V  0.02264649  0.97700384  0.34055281     1.35200
V274        V  0.48573970  0.52867821  0.33457768     1.35200
C275        C  0.43500102  0.93761588  0.34030875     0.79400
C276        C  0.08051401  0.57774159  0.32754017     0.79500
C277        C  0.01107836  0.99947030  0.43630573     0.79400
C278        C  0.00670930  0.99458583  0.24359553     0.79300
O279        O  0.07494802  0.79885058  0.33404566    -0.69800
O280        O  0.46516856  0.68157888  0.33029208    -0.70000
O281        O  0.01674445  0.74352363  0.26521553    -0.69900
O282        O  0.02940195  0.74243857  0.40804283    -0.69900
O283        O  0.49055810  0.76875676  0.40886092    -0.69900
O284        O  0.48012993  0.77522537  0.26596739    -0.69900
O285        O  0.43065832  0.71784075  0.33820837    -0.69800
O286        O  0.03605497  0.83005945  0.34667645    -0.70000
V287        V  0.02217756  0.74349866  0.33677091     1.35200
V288        V  0.48553427  0.77082272  0.33725677     1.35200
C289        C  0.07311346  0.83348853  0.34034863     0.79400
C290        C  0.42936157  0.68147162  0.33438032     0.79500
C291        C  0.99772374  0.76217796  0.24487381     0.79400
C292        C  0.01031009  0.75611413  0.43661396     0.79300
O293        O  0.30387114  0.56167467  0.33088646    -0.69800
O294        O  0.18771699  0.96227780  0.33833126    -0.70000
O295        O  0.24901622  0.51010219  0.40343551    -0.69900
O296        O  0.24701770  0.50860855  0.25909128    -0.69900
O297        O  0.26975055  0.99084327  0.25599548    -0.69900
O298        O  0.28947045  0.99313804  0.39823533    -0.69900
O299        O  0.23033242  0.93449845  0.33214687    -0.69800
O300        O  0.33584685  0.52272796  0.32682545    -0.70000
V301        V  0.24887739  0.50889676  0.33129137     1.35200
V302        V  0.27880466  0.99257076  0.32730524     1.35200
C303        C  0.33884583  0.56000673  0.32856343     0.79400
C304        C  0.19207607  0.92882886  0.33574196     0.79500
C305        C  0.26781240  0.49310444  0.42801842     0.79400
C306        C  0.25903348  0.48544055  0.23514866     0.79300
O307        O  0.21093015  0.68774137  0.33439429    -0.69800
O308        O  0.32738644  0.78330909  0.33428851    -0.70000
O309        O  0.27153579  0.73262993  0.40634287    -0.69900
O310        O  0.26638747  0.73833454  0.26236412    -0.69900
O311        O  0.24637359  0.78722647  0.26911968    -0.69900
O312        O  0.24180032  0.77356856  0.41228888    -0.69900
O313        O  0.30274532  0.82808782  0.34590221    -0.69800
O314        O  0.18593378  0.73295254  0.33558334    -0.70000
V315        V  0.26861497  0.73636832  0.33447382     1.35200
V316        V  0.24476831  0.77968255  0.34061215     1.35200
C317        C  0.17862157  0.69405448  0.33417905     0.79400
C318        C  0.33495122  0.82194207  0.34075041     0.79500
C319        C  0.25617412  0.75101938  0.43369597     0.79400
C320        C  0.25594127  0.76421437  0.24128623     0.79300
O321        O  0.45351826  0.53050837  0.99913211    -0.69800
O322        O  0.05461889  0.51755790  0.99832458    -0.70000
O323        O  0.00706840  0.52694890  0.92457630    -0.69900
O324        O  0.00453184  0.52501418  0.06898687    -0.69900
O325        O  0.48435256  0.98266708  0.07399785    -0.69900
O326        O  0.47792802  0.97281762  0.93045804    -0.69900
O327        O  0.03268678  0.97314757  0.00752772    -0.69800
O328        O  0.42715877  0.97767850  0.00213527    -0.70000
V329        V  0.00496738  0.52489506  0.99677077     1.35200
V330        V  0.48189023  0.97907513  0.00214841     1.35200
C331        C  0.42639731  0.01294533  0.99614240     0.79400
C332        C  0.06891910  0.00870226  0.00474615     0.79500
C333        C  0.98249113  0.49242304  0.89975377     0.79400
C334        C  0.98566501  0.48876647  0.09228216     0.79300
O335        O  0.00968741  0.77555604  0.93603662    -0.69800
O336        O  0.00675423  0.77279485  0.08037719    -0.70000
O337        O  0.06609195  0.78374919  0.01007488    -0.69900
O338        O  0.45664427  0.77468269  0.99588360    -0.69900
O339        O  0.42750536  0.70387549  0.99525181    -0.69900
O340        O  0.04014312  0.71364865  0.00261139    -0.69900
O341        O  0.48387517  0.70537553  0.06595898    -0.69800
O342        O  0.48474664  0.71497402  0.92286486    -0.70000
V343        V  0.00778263  0.77301044  0.00820926     1.35200
V344        V  0.48482783  0.71162109  0.99452177     1.35200
C345        C  0.99319394  0.74014709  0.91116099     0.79400
C346        C  0.99686294  0.73765683  0.10379205     0.79500
C347        C  0.07282766  0.75194743  0.00624358     0.79400
C348        C  0.42275093  0.73710162  0.99507427     0.79300
O349        O  0.26775539  0.94167800  0.99555834    -0.69800
O350        O  0.15931074  0.94008885  0.00455628    -0.70000
O351        O  0.20980927  0.94147126  0.92807173    -0.69900
O352        O  0.21786617  0.94061537  0.07184965    -0.69900
O353        O  0.25634428  0.53175760  0.06565789    -0.69900
O354        O  0.25247418  0.51709053  0.92308750    -0.69900
O355        O  0.20484173  0.53206664  0.99040475    -0.69800
O356        O  0.30359320  0.51605822  0.99854369    -0.70000
V357        V  0.21426872  0.94231512  0.00000205     1.35200
V358        V  0.25350940  0.52291491  0.99456655     1.35200
C359        C  0.29851932  0.47790393  0.00033178     0.79400
C360        C  0.16675231  0.50005162  0.99727107     0.79500
C361        C  0.22976549  0.97706920  0.90380857     0.79400
C362        C  0.23398644  0.97592432  0.09674085     0.79300
O363        O  0.32026159  0.79054037  0.00584943    -0.69800
O364        O  0.20474103  0.77328172  0.00535331    -0.70000
O365        O  0.26101317  0.77693883  0.07751190    -0.69900
O366        O  0.26424496  0.78722130  0.93389768    -0.69900
O367        O  0.23228263  0.71639177  0.92717363    -0.69900
O368        O  0.23920388  0.70761843  0.07057012    -0.69900
O369        O  0.17828779  0.70283272  0.00428887    -0.69800
O370        O  0.29325048  0.72079992  0.99338868    -0.70000
V371        V  0.26202772  0.78069235  0.00554692     1.35200
V372        V  0.23628888  0.71324368  0.99899215     1.35200
C373        C  0.32635263  0.75853296  0.99893860     0.79400
C374        C  0.17186285  0.73495706  0.00530597     0.79500
C375        C  0.25059216  0.74070814  0.09849920     0.79400
C376        C  0.24784086  0.75350667  0.90614997     0.79300
O377        O  0.02972944  0.97301426  0.67306842    -0.69800
O378        O  0.04521488  0.58475984  0.65743676    -0.70000
O379        O  0.04455988  0.53264339  0.73204213    -0.69900
O380        O  0.03254891  0.52353882  0.58817524    -0.69900
O381        O  0.47203766  0.01126918  0.59720341    -0.69900
O382        O  0.48332632  0.01207624  0.74053348    -0.69900
O383        O  0.45357807  0.54897662  0.67123502    -0.69800
O384        O  0.46902108  0.95384798  0.66734552    -0.70000
V385        V  0.03737471  0.52755189  0.66021261     1.35200
V386        V  0.47904712  0.01215789  0.66873947     1.35200
C387        C  0.99348780  0.93742484  0.67529673     0.79400
C388        C  0.01273687  0.59005742  0.66397005     0.79500
C389        C  0.01086537  0.51677910  0.75954326     0.79400
C390        C  0.99558393  0.51099711  0.56740284     0.79300
O391        O  0.48987949  0.81809472  0.67285378    -0.69800
O392        O  0.48630624  0.70797576  0.66746179    -0.70000
O393        O  0.49454158  0.76364142  0.74132793    -0.69900
O394        O  0.47998905  0.76179828  0.59936950    -0.69900
O395        O  0.03307447  0.77377464  0.59882411    -0.69900
O396        O  0.04870284  0.78363002  0.74216197    -0.69900
O397        O  0.03230591  0.72098548  0.67277656    -0.69800
O398        O  0.04973946  0.83649256  0.66780684    -0.70000
V399        V  0.48901714  0.76348079  0.67013365     1.35200
V400        V  0.03969048  0.77820530  0.67059773     1.35200
C401        C  0.01800912  0.84294577  0.67490409     0.79400
C402        C  0.99403419  0.68805429  0.67397830     0.79500
C403        C  0.53193696  0.78385402  0.76203711     0.79400
C404        C  0.51207790  0.77430156  0.57016113     0.79300
O405        O  0.28621627  0.52027283  0.73490749    -0.69800
O406        O  0.27987345  0.51326579  0.59110730    -0.70000
O407        O  0.28679159  0.57263884  0.66030582    -0.69900
O408        O  0.28940236  0.96525847  0.66827083    -0.69900
O409        O  0.21826452  0.93243665  0.66823377    -0.69900
O410        O  0.21616401  0.54088774  0.66866006    -0.69900
O411        O  0.21757665  0.98866800  0.59866946    -0.69800
O412        O  0.22472353  0.98763039  0.74170472    -0.70000
V413        V  0.28167806  0.51620045  0.66310024     1.35200
V414        V  0.22283714  0.98884975  0.67007793     1.35200
C415        C  0.26125296  0.00580802  0.76454210     0.79400
C416        C  0.25126060  0.00256811  0.57169406     0.79500
C417        C  0.25268549  0.57571186  0.66439224     0.79400
C418        C  0.25305576  0.93012026  0.66854734     0.79300
O419        O  0.25358624  0.80786082  0.66981607    -0.69800
O420        O  0.25540688  0.70072832  0.67044314    -0.70000
O421        O  0.25639070  0.75522276  0.59827237    -0.69900
O422        O  0.25310424  0.75358655  0.74221082    -0.69900
O423        O  0.18224564  0.71227404  0.73922518    -0.69900
O424        O  0.18538577  0.72431096  0.59552032    -0.69900
O425        O  0.18454577  0.66512109  0.66138919    -0.69800
O426        O  0.18250264  0.77132944  0.67329817    -0.70000
V427        V  0.25331169  0.75371361  0.67017632     1.35200
V428        V  0.18499926  0.71892463  0.66741490     1.35200
C429        C  0.21763365  0.80777238  0.67200206     0.79400
C430        C  0.22007433  0.66464465  0.66512118     0.79500
C431        C  0.22148582  0.74108798  0.57242991     0.79400
C432        C  0.21723324  0.73155096  0.76520163     0.79300
C433        C  0.21615806  0.84896107  0.67235393    -0.14500
C434        C  0.25279054  0.88813744  0.66916528    -0.29600
H435        H  0.18444549  0.84698203  0.67459261     0.14600
H436        H  0.28436862  0.88978040  0.66709698     0.15100
C437        C  0.21916297  0.62240019  0.66386447    -0.14500
C438        C  0.25548677  0.61895757  0.66442303    -0.29600
H439        H  0.18712166  0.59295519  0.66249799     0.14600
H440        H  0.28766736  0.64821313  0.66479291     0.15100
C441        C  0.02455561  0.88774430  0.67391674    -0.14500
C442        C  0.99022980  0.89417771  0.67740154    -0.29600
H443        H  0.56225108  0.92466265  0.66067345     0.14600
H444        H  0.95746062  0.86611704  0.68124622     0.15100
C445        C  0.01940801  0.63478587  0.66537880    -0.14500
C446        C  0.98651106  0.64296734  0.67250501    -0.29600
H447        H  0.45451248  0.62362613  0.66940764     0.14600
H448        H  0.95318509  0.61600931  0.67673798     0.15100
C449        C  0.24786639  0.75794405  0.85055534    -0.14500
C450        C  0.21613835  0.72744257  0.82094440    -0.29600
H451        H  0.27376524  0.78778828  0.83372094     0.14600
H452        H  0.18832533  0.69930414  0.83804186     0.15100
C453        C  0.26314101  0.00662048  0.82048438    -0.14500
C454        C  0.22929090  0.97680581  0.84798649    -0.29600
H455        H  0.29286288  0.03122639  0.83930436     0.14600
H456        H  0.19445686  0.44794534  0.83083163     0.15100
C457        C  0.37839616  0.73140323  0.99425693    -0.14500
C458        C  0.37113094  0.76525271  0.99787797    -0.29600
H459        H  0.35088513  0.69816780  0.99169080     0.14600
H460        H  0.39852505  0.79848141  0.00123955     0.15100
C461        C  0.11800920  0.76000282  0.00620967    -0.14500
C462        C  0.12677108  0.72712729  0.00585637    -0.29600
H463        H  0.14463240  0.79377577  0.00687175     0.14600
H464        H  0.10011401  0.69336616  0.00556203     0.15100
C465        C  0.98990992  0.73954126  0.85558165    -0.14500
C466        C  0.53568112  0.78509889  0.81801178    -0.29600
H467        H  0.47555772  0.72661822  0.82638084     0.14600
H468        H  0.05107351  0.79627071  0.84326486     0.15100
C469        C  0.33619032  0.47071778  0.00159943    -0.14500
C470        C  0.38476021  0.01363812  0.99542938    -0.29600
H471        H  0.34367838  0.94515038  0.99837867     0.14600
H472        H  0.38380026  0.53772381  0.00245452     0.15100
C473        C  0.11152831  0.00984466  0.00330544    -0.14500
C474        C  0.12868832  0.50655572  0.99559113    -0.29600
H475        H  0.08118623  0.43928190  0.99482845     0.14600
H476        H  0.08562302  0.94159846  0.00651479     0.15100
C477        C  0.01468794  0.51892769  0.81527562    -0.14500
C478        C  0.98048798  0.49200696  0.84411618    -0.29600
H479        H  0.04594995  0.54180985  0.83273756     0.14600
H480        H  0.46599886  0.97394645  0.83081588     0.15100
C481        C  0.25517025  0.74626815  0.48929428    -0.14500
C482        C  0.22261947  0.74494894  0.51671888    -0.29600
H483        H  0.28043507  0.74187784  0.50774982     0.14600
H484        H  0.19542483  0.74554570  0.49763509     0.15100
C485        C  0.25488734  0.76805819  0.18558706    -0.14500
C486        C  0.25205410  0.73681010  0.15420562    -0.29600
H487        H  0.25478046  0.79662672  0.17008547     0.14600
H488        H  0.24972559  0.70712095  0.16975818     0.15100
C489        C  0.27057252  0.49489192  0.48387198    -0.14500
C490        C  0.24638549  0.00280006  0.51616106    -0.29600
H491        H  0.30479728  0.00356651  0.49775812     0.14600
H492        H  0.21298180  0.49800756  0.49420080     0.15100
C493        C  0.23802247  0.97524635  0.15236564    -0.14500
C494        C  0.24141261  0.00763425  0.18204370    -0.29600
H495        H  0.24504414  0.53384910  0.16602786     0.14600
H496        H  0.23809845  0.03421239  0.16573542     0.15100
C497        C  0.01618234  0.75624840  0.49195382    -0.14500
C498        C  0.98936329  0.76066500  0.52394612    -0.29600
H499        H  0.54477787  0.74564737  0.49725004     0.14600
H500        H  0.96108710  0.76198251  0.50932124     0.15100
C501        C  0.38656633  0.64036774  0.33431834    -0.14500
C502        C  0.38229345  0.60048474  0.32842725    -0.29600
H503        H  0.35748759  0.64322463  0.33889538     0.14600
H504        H  0.41123703  0.59736433  0.32408253     0.15100
C505        C  0.15352552  0.88412814  0.33636626    -0.14500
C506        C  0.11260651  0.87739842  0.34035125    -0.29600
H507        H  0.15884927  0.85643175  0.33313967     0.14600
H508        H  0.10760127  0.90528300  0.34390256     0.15100
C509        C  0.99858967  0.73595698  0.15939163    -0.14500
C510        C  0.99484787  0.76451906  0.18932149    -0.29600
H511        H  0.00174154  0.70944590  0.17624568     0.14600
H512        H  0.48799774  0.78813936  0.16632606     0.15100
C513        C  0.99025358  0.51052918  0.51200887    -0.14500
C514        C  0.01661475  0.50518342  0.48018297    -0.29600
H515        H  0.96292179  0.51337607  0.49702214     0.14600
H516        H  0.55119367  0.00700301  0.50058475     0.15100
C517        C  0.38986258  0.90049651  0.34344596    -0.14500
C518        C  0.38048597  0.85866827  0.34146411    -0.29600
H519        H  0.36347665  0.90794372  0.34533094     0.14600
H520        H  0.40675666  0.85114809  0.33844149     0.15100
C521        C  0.13337764  0.65700097  0.33274776    -0.14500
C522        C  0.12509039  0.61572258  0.32739022    -0.29600
H523        H  0.10660378  0.66371766  0.33631660     0.14600
H524        H  0.15200728  0.60930422  0.32303941     0.15100
C525        C  0.98799192  0.48616444  0.14773500    -0.14500
C526        C  0.99486015  0.51925877  0.17828729    -0.29600
H527        H  0.48316685  0.45284744  0.16583115     0.14600
H528        H  0.00280145  0.96249273  0.17112267     0.15100
O529        O  0.96219153  0.43959764  0.32815852    -0.69800
O530        O  0.58279637  0.02968988  0.32351219    -0.70000
O531        O  0.51714311  0.48568474  0.40019805    -0.69900
O532        O  0.50733854  0.48751817  0.25640910    -0.69900
O533        O  0.99574026  0.01875116  0.26714029    -0.69900
O534        O  0.99384595  0.01788354  0.41144209    -0.69900
O535        O  0.55620173  0.07340900  0.32844662    -0.69800
O536        O  0.93308879  0.48116092  0.33284208    -0.70000
V537        V  0.51173930  0.48719610  0.32839631     1.35200
V538        V  0.99538623  0.01765871  0.33932336     1.35200
C539        C  0.92833867  0.44318754  0.33076296     0.79400
C540        C  0.58902211  0.06827001  0.32397024     0.79500
C541        C  0.50161776  0.50390851  0.42759485     0.79400
C542        C  0.49607928  0.51282512  0.23539178     0.79300
O543        O  0.58297733  0.29410588  0.31762060    -0.69800
O544        O  0.97582306  0.16356091  0.34203336    -0.70000
O545        O  0.52558018  0.23720801  0.24962176    -0.69900
O546        O  0.53769418  0.24070014  0.39376031    -0.69900
O547        O  0.00656221  0.25851791  0.40554758    -0.69900
O548        O  0.00242012  0.25301909  0.26130835    -0.69900
O549        O  0.94709245  0.20543166  0.33592991    -0.69800
O550        O  0.54429460  0.32597086  0.32707391    -0.70000
V551        V  0.53086190  0.23928131  0.32178112     1.35200
V552        V  0.00478480  0.25474272  0.33351511     1.35200
C553        C  0.58135481  0.32886936  0.32187401     0.79400
C554        C  0.94196758  0.16740103  0.33998022     0.79500
C555        C  0.50640653  0.25527825  0.22799159     0.79400
C556        C  0.51828162  0.25525644  0.42071947     0.79300
O557        O  0.81136890  0.05033006  0.34215622    -0.69800
O558        O  0.66720089  0.48765078  0.32368931    -0.70000
O559        O  0.75314717  0.99667694  0.41196517    -0.69900
O560        O  0.75619382  0.99890018  0.26785889    -0.69900
O561        O  0.75673653  0.50578584  0.25897430    -0.69900
O562        O  0.75492725  0.50307476  0.40338256    -0.69900
O563        O  0.70209341  0.45147303  0.32909058    -0.69800
O564        O  0.84270900  0.01076043  0.33846142    -0.70000
V565        V  0.75585717  0.99739976  0.33992803     1.35200
V566        V  0.75561878  0.50556931  0.33118293     1.35200
C567        C  0.84617178  0.04813766  0.34044123     0.79400
C568        C  0.66620557  0.45134846  0.32511459     0.79500
C569        C  0.77066911  0.97882123  0.43729890     0.79400
C570        C  0.76825002  0.97587042  0.24378757     0.79300
O571        O  0.71883793  0.18387652  0.31806386    -0.69800
O572        O  0.83082192  0.28705457  0.31644945    -0.70000
O573        O  0.77982187  0.23173439  0.38860935    -0.69900
O574        O  0.77013211  0.23931983  0.24582428    -0.69900
O575        O  0.74434068  0.28328640  0.25618330    -0.69900
O576        O  0.74426327  0.26675639  0.39875552    -0.69900
O577        O  0.80036755  0.32615801  0.33232236    -0.69800
O578        O  0.68825972  0.22412958  0.32270848    -0.70000
V579        V  0.77432510  0.23623154  0.31738231     1.35200
V580        V  0.74488225  0.27433239  0.32731457     1.35200
C581        C  0.68442602  0.18660818  0.32010506     0.79400
C582        C  0.83465923  0.32407507  0.32489818     0.79500
C583        C  0.76265173  0.24698963  0.41794035     0.79400
C584        C  0.75656873  0.26342039  0.22669702     0.79300
O585        O  0.96076256  0.04475527  0.00073733    -0.69800
O586        O  0.57065368  0.04893100  0.00046593    -0.70000
O587        O  0.51719854  0.04365156  0.92413751    -0.69900
O588        O  0.51589795  0.05348048  0.06742887    -0.69900
O589        O  0.96540691  0.45395393  0.06679835    -0.69900
O590        O  0.95857405  0.45754225  0.92377385    -0.69900
O591        O  0.51135555  0.44630738  0.99080709    -0.69800
O592        O  0.91323930  0.46478955  0.00007775    -0.70000
V593        V  0.51587745  0.04720168  0.99591446     1.35200
V594        V  0.96282851  0.45724562  0.99533205     1.35200
C595        C  0.91853455  0.50303290  0.99832251     0.79400
C596        C  0.54945212  0.47939367  0.99317202     0.79500
C597        C  0.49693136  0.00655797  0.90290977     0.79400
C598        C  0.50066039  0.01975871  0.09510661     0.79300
O599        O  0.51610153  0.27703533  0.92018436    -0.69800
O600        O  0.51385266  0.26836055  0.06422404    -0.70000
O601        O  0.57332554  0.28347036  0.99244845    -0.69900
O602        O  0.96924152  0.28249368  0.99384782    -0.69900
O603        O  0.93872622  0.21180006  0.00118821    -0.69900
O604        O  0.54878057  0.21395986  0.98130065    -0.69900
O605        O  0.99646674  0.21805294  0.07311621    -0.69800
O606        O  0.99270128  0.21510134  0.92860772    -0.70000
V607        V  0.51450482  0.27143729  0.99212282     1.35200
V608        V  0.99509483  0.21775421  0.00078410     1.35200
C609        C  0.50035163  0.24279696  0.89325057     0.79400
C610        C  0.50482145  0.23263278  0.08568127     0.79500
C611        C  0.58094070  0.25240665  0.98642115     0.79400
C612        C  0.93485404  0.24533046  0.99649339     0.79300
O613        O  0.76357486  0.45147060  0.99643269    -0.69800
O614        O  0.66400662  0.46563805  0.99766136    -0.70000
O615        O  0.71347729  0.46003559  0.92464394    -0.69900
O616        O  0.71480319  0.45789312  0.06949734    -0.69900
O617        O  0.75367830  0.02050846  0.07560706    -0.69900
O618        O  0.74485403  0.00681799  0.93234280    -0.69900
O619        O  0.69531530  0.01405732  0.00422277    -0.69800
O620        O  0.80286150  0.01275347  0.00393626    -0.70000
V621        V  0.71471582  0.46010183  0.99713259     1.35200
V622        V  0.74849825  0.01222396  0.00417610     1.35200
C623        C  0.80275857  0.97676657  0.00461560     0.79400
C624        C  0.65948300  0.97924321  0.01269305     0.79500
C625        C  0.73746103  0.49551845  0.90127544     0.79400
C626        C  0.73401613  0.49322970  0.09459799     0.79300
O627        O  0.83062605  0.29720229  0.99490898    -0.69800
O628        O  0.71402596  0.27671495  0.98705476    -0.70000
O629        O  0.76787241  0.28132324  0.06289023    -0.69900
O630        O  0.77688962  0.29241378  0.91915358    -0.69900
O631        O  0.74732197  0.22175358  0.91285145    -0.69900
O632        O  0.74770102  0.21235760  0.05596043    -0.69900
O633        O  0.68921591  0.20654846  0.98561860    -0.69800
O634        O  0.80574386  0.22769669  0.98330510    -0.70000
V635        V  0.77184720  0.28564181  0.99088118     1.35200
V636        V  0.74798579  0.21846293  0.98454120     1.35200
C637        C  0.83798369  0.26584137  0.98990644     0.79400
C638        C  0.68176410  0.23804717  0.98576619     0.79500
C639        C  0.75728329  0.24499116  0.08380528     0.79400
C640        C  0.76274723  0.25869518  0.89160718     0.79300
O641        O  0.52611602  0.47816545  0.66278879    -0.69800
O642        O  0.55614302  0.09585074  0.65775065    -0.70000
O643        O  0.55413435  0.04405765  0.73366975    -0.69900
O644        O  0.54132960  0.03288461  0.59022996    -0.69900
O645        O  0.96279043  0.49963627  0.59532526    -0.69900
O646        O  0.97364267  0.49917481  0.73818866    -0.69900
O647        O  0.96038874  0.04699088  0.67659091    -0.69800
O648        O  0.96169889  0.44216497  0.66426533    -0.70000
V649        V  0.54648155  0.03792685  0.66206205     1.35200
V650        V  0.96967113  0.49985638  0.66666374     1.35200
C651        C  0.49050291  0.44194358  0.66368546     0.79400
C652        C  0.52422211  0.10221248  0.66334340     0.79500
C653        C  0.52071556  0.02907216  0.76149450     0.79400
C654        C  0.50458147  0.02112024  0.56933251     0.79300
O655        O  0.98994451  0.31051232  0.67105501    -0.69800
O656        O  0.99191663  0.20332170  0.66769312    -0.70000
O657        O  0.99677784  0.25783161  0.74108811    -0.69900
O658        O  0.98406232  0.25504413  0.59799913    -0.69900
O659        O  0.54065029  0.28297943  0.58291733    -0.69900
O660        O  0.55368859  0.29582412  0.72641542    -0.69900
O661        O  0.54129564  0.23299114  0.65958787    -0.69800
O662        O  0.55295108  0.34626811  0.64998792    -0.70000
V663        V  0.99197457  0.25736793  0.66936953     1.35200
V664        V  0.54591466  0.28906339  0.65479551     1.35200
C665        C  0.52002930  0.35091734  0.65691465     0.79400
C666        C  0.50364135  0.19910279  0.66048700     0.79500
C667        C  0.03398239  0.27961429  0.76207090     0.79400
C668        C  0.01690786  0.26793803  0.56974374     0.79300
O669        O  0.77617196  0.00570386  0.74389128    -0.69800
O670        O  0.77319458  0.99291403  0.60089991    -0.70000
O671        O  0.78259026  0.05656319  0.66461073    -0.69900
O672        O  0.75664228  0.43770389  0.66787392    -0.69900
O673        O  0.68746716  0.41067006  0.65025459    -0.69900
O674        O  0.71227401  0.02967210  0.67046040    -0.69900
O675        O  0.70381171  0.47697596  0.58567057    -0.69800
O676        O  0.68502400  0.45825498  0.72799361    -0.70000
V677        V  0.77308096  0.99865462  0.67245233     1.35200
V678        V  0.69558269  0.46790845  0.65699307     1.35200
C679        C  0.71732540  0.47261097  0.75835843     0.79400
C680        C  0.74167915  0.49113031  0.56751662     0.79500
C681        C  0.75008720  0.06260181  0.66542418     0.79400
C682        C  0.71960422  0.40477689  0.65793530     0.79300
O683        O  0.77560061  0.30483822  0.65381385    -0.69800
O684        O  0.76443819  0.19204119  0.65666010    -0.70000
O685        O  0.76909575  0.24740646  0.58283031    -0.69900
O686        O  0.77056754  0.24979655  0.72718459    -0.69900
O687        O  0.69932283  0.21482996  0.72671250    -0.69900
O688        O  0.69885518  0.22250543  0.58335584    -0.69900
O689        O  0.69364665  0.16227775  0.65088932    -0.69800
O690        O  0.70487749  0.27508654  0.65931191    -0.70000
V691        V  0.76860883  0.24790266  0.65504681     1.35200
V692        V  0.70051207  0.21920389  0.65502073     1.35200
C693        C  0.74225615  0.30919535  0.65705036     0.79400
C694        C  0.72710149  0.15792121  0.65409749     0.79500
C695        C  0.73376098  0.23602031  0.55865734     0.79400
C696        C  0.73497019  0.23187028  0.75136653     0.79300
C697        C  0.74766237  0.35337317  0.65849382    -0.14500
C698        C  0.71354484  0.36031345  0.65570319    -0.29600
H699        H  0.78082117  0.38100856  0.66143982     0.14600
H700        H  0.68043213  0.33282897  0.65140645     0.15100
C701        C  0.72197282  0.11378208  0.65607242    -0.14500
C702        C  0.75625897  0.10709002  0.66074654    -0.29600
H703        H  0.68881821  0.08598170  0.65491296     0.14600
H704        H  0.78949081  0.13474663  0.66130711     0.15100
C705        C  0.52434001  0.39486201  0.65703342    -0.14500
C706        C  0.48900414  0.39943532  0.66307401    -0.29600
H707        H  0.05841338  0.41782470  0.65776462     0.14600
H708        H  0.45689882  0.37046654  0.66724699     0.15100
C709        C  0.53123901  0.14705526  0.66150552    -0.14500
C710        C  0.49759266  0.15469365  0.66254575    -0.29600
H711        H  0.96212011  0.12111619  0.67115460     0.14600
H712        H  0.46422839  0.12740749  0.66478334     0.15100
C713        C  0.76432618  0.26227191  0.83595571    -0.14500
C714        C  0.73436845  0.22963784  0.80698502    -0.29600
H715        H  0.78918210  0.29247152  0.81863143     0.14600
H716        H  0.70724015  0.20123502  0.82465615     0.15100
C717        C  0.71073953  0.46853062  0.81384660    -0.14500
C718        C  0.74163431  0.49750133  0.84557437    -0.29600
H719        H  0.67977585  0.44283072  0.82860169     0.14600
H720        H  0.68863599  0.93440811  0.84129358     0.15100
C721        C  0.89071366  0.23988499  0.99378979    -0.14500
C722        C  0.88313801  0.27357680  0.99214741    -0.29600
H723        H  0.86328768  0.20650871  0.99360305     0.14600
H724        H  0.91024924  0.30708003  0.99349639     0.15100
C725        C  0.62650456  0.26141416  0.98604129    -0.14500
C726        C  0.63624672  0.22919277  0.98450014    -0.29600
H727        H  0.65261450  0.29536060  0.98830789     0.14600
H728        H  0.61011249  0.19522405  0.98288938     0.15100
C729        C  0.49686819  0.24450402  0.83769093    -0.14500
C730        C  0.03821053  0.28166244  0.81797980    -0.29600
H731        H  0.98335625  0.21906689  0.82936990     0.14600
H732        H  0.55285901  0.30678365  0.82800909     0.15100
C733        C  0.84383159  0.97505486  0.00502329    -0.14500
C734        C  0.88104524  0.51056258  0.99947501    -0.29600
H735        H  0.83305986  0.44368266  0.00002267     0.14600
H736        H  0.88604102  0.04337060  0.00476809     0.15100
C737        C  0.58829912  0.47411512  0.99205099    -0.14500
C738        C  0.61709361  0.97850100  0.01280974    -0.29600
H739        H  0.64361301  0.04607253  0.99983723     0.14600
H740        H  0.63447962  0.54176945  0.99534654     0.15100
C741        C  0.52537320  0.03216368  0.81709233    -0.14500
C742        C  0.49413709  0.00245465  0.84730832    -0.29600
H743        H  0.55523238  0.05877049  0.83346137     0.14600
H744        H  0.95037785  0.46702687  0.82628826     0.15100
C745        C  0.76427373  0.24186515  0.47324541    -0.14500
C746        C  0.73271457  0.23971706  0.50310551    -0.29600
H747        H  0.79080042  0.23826639  0.48940801     0.14600
H748        H  0.70463617  0.24008566  0.48615324     0.15100
C749        C  0.75548755  0.26878563  0.17130638    -0.14500
C750        C  0.75695003  0.24011812  0.13928381    -0.29600
H751        H  0.75272671  0.29618542  0.15666928     0.14600
H752        H  0.75713568  0.21141205  0.15420982     0.15100
C753        C  0.76986834  0.97825537  0.49341577    -0.14500
C754        C  0.74974298  0.49825965  0.51252397    -0.29600
H755        H  0.70137611  0.51558299  0.49934700     0.14600
H756        H  0.71088235  0.97955407  0.49958324     0.15100
C757        C  0.73445276  0.49253741  0.15068782    -0.14500
C758        C  0.74177716  0.52749157  0.17852559    -0.29600
H759        H  0.74819840  0.02133347  0.17677019     0.14600
H760        H  0.74520897  0.55657415  0.15984197     0.15100
C761        C  0.52388948  0.25805699  0.47646601    -0.14500
C762        C  0.49772080  0.26550137  0.50655685    -0.29600
H763        H  0.05521804  0.24024369  0.50422233     0.14600
H764        H  0.47004678  0.26697589  0.49020000     0.15100
C765        C  0.89727432  0.12867125  0.34150909    -0.14500
C766        C  0.89034143  0.08755260  0.34072204    -0.29600
H767        H  0.86954515  0.13413184  0.34194772     0.14600
H768        H  0.91821912  0.08233052  0.33963610     0.15100
C769        C  0.62398936  0.40992477  0.32298985    -0.14500
C770        C  0.62249332  0.37117662  0.32150038    -0.29600
H771        H  0.59385885  0.41128146  0.32327593     0.14600
H772        H  0.65281052  0.37018129  0.32042786     0.15100
C773        C  0.50699195  0.22935794  0.14133253    -0.14500
C774        C  0.50397309  0.25774525  0.17232422    -0.29600
H775        H  0.50982294  0.20233994  0.15714229     0.14600
H776        H  0.01225306  0.19808073  0.16476661     0.15100
C777        C  0.49935981  0.01901968  0.51377262    -0.14500
C778        C  0.52588697  0.01226853  0.48379888    -0.29600
H779        H  0.47186824  0.02081602  0.49737641     0.14600
H780        H  0.04195413  0.49905132  0.49499411     0.15100
C781        C  0.88425058  0.40407242  0.33113090    -0.14500
C782        C  0.87838206  0.36357075  0.32574920    -0.29600
H783        H  0.85617777  0.40870518  0.33514450     0.14600
H784        H  0.90651286  0.35913013  0.32101476     0.15100
C785        C  0.64044343  0.14749443  0.32044891    -0.14500
C786        C  0.63362075  0.10641949  0.32011256    -0.29600
H787        H  0.61271399  0.15289352  0.32250197     0.14600
H788        H  0.66115683  0.10072913  0.31814132     0.15100
C789        C  0.50228452  0.02394111  0.15072484    -0.14500
C790        C  0.50051272  0.99229789  0.18078718    -0.29600
H791        H  0.01110348  0.05342017  0.17432143     0.14600
H792        H  0.49672389  0.54580854  0.16374894     0.15100
O793        O  0.96607149  0.92631816  0.34523197    -0.69800
O794        O  0.56943162  0.53528482  0.32562623    -0.70000
O795        O  0.53353501  0.98718531  0.40362819    -0.69900
O796        O  0.51751770  0.97445469  0.26116106    -0.69900
O797        O  0.98782533  0.53737595  0.26283963    -0.69900
O798        O  0.99273805  0.52594392  0.40554877    -0.69900
O799        O  0.54312616  0.57851559  0.33862452    -0.69800
O800        O  0.93792569  0.96871083  0.33827826    -0.70000
V801        V  0.52492664  0.98169701  0.33236862     1.35200
V802        V  0.99070097  0.53070826  0.33402345     1.35200
C803        C  0.93255570  0.93065067  0.34232773     0.79400
C804        C  0.57593465  0.57341797  0.33268504     0.79500
C805        C  0.52013841  0.00868355  0.42834477     0.79400
C806        C  0.50463219  0.99665807  0.23628949     0.79300
O807        O  0.57324866  0.78915058  0.32463914    -0.69800
O808        O  0.97072516  0.68701476  0.33915752    -0.70000
O809        O  0.51244869  0.73704815  0.25591582    -0.69900
O810        O  0.52691521  0.73457428  0.39879068    -0.69900
O811        O  0.98711143  0.77041478  0.41655562    -0.69900
O812        O  0.98151178  0.77908462  0.27323821    -0.69900
O813        O  0.93197016  0.71919989  0.34312325    -0.69800
O814        O  0.53887361  0.82509866  0.33671523    -0.70000
V815        V  0.51865575  0.73615547  0.32754958     1.35200
V816        V  0.98486392  0.77401727  0.34477791     1.35200
C817        C  0.57448457  0.82530754  0.33099325     0.79400
C818        C  0.93348446  0.68415306  0.34092444     0.79500
C819        C  0.49477780  0.75746759  0.23661547     0.79400
C820        C  0.51236733  0.75251296  0.42803799     0.79300
O821        O  0.77527856  0.59421787  0.33840351    -0.69800
O822        O  0.69962799  0.94596445  0.33741864    -0.70000
O823        O  0.71569031  0.53489653  0.40259011    -0.69900
O824        O  0.72638368  0.54637518  0.25915752    -0.69900
O825        O  0.78396893  0.95605219  0.26880883    -0.69900
O826        O  0.78932383  0.96168070  0.41344007    -0.69900
O827        O  0.73186992  0.90725083  0.34358176    -0.69800
O828        O  0.81073738  0.55867600  0.33336277    -0.70000
V829        V  0.72194303  0.54022912  0.33095487     1.35200
V830        V  0.78650537  0.95982696  0.34108374     1.35200
C831        C  0.81142173  0.59478268  0.33745636     0.79400
C832        C  0.69698048  0.90883102  0.33972685     0.79500
C833        C  0.73316107  0.51670707  0.42737002     0.79400
C834        C  0.74171955  0.52647457  0.23451691     0.79300
O835        O  0.70844131  0.68085604  0.34085699    -0.69800
O836        O  0.82564260  0.77557309  0.33594721    -0.70000
O837        O  0.77255769  0.72507362  0.40989603    -0.69900
O838        O  0.76144644  0.73100890  0.26710718    -0.69900
O839        O  0.74202287  0.78010926  0.27681277    -0.69900
O840        O  0.74482964  0.76746075  0.41968099    -0.69900
O841        O  0.80203385  0.82085287  0.35012169    -0.69800
O842        O  0.68476743  0.72698203  0.34635676    -0.70000
V843        V  0.76658007  0.72898488  0.33864820     1.35200
V844        V  0.74392022  0.77300725  0.34810702     1.35200
C845        C  0.67663423  0.68791302  0.34327504     0.79400
C846        C  0.83374955  0.81437794  0.34282243     0.79500
C847        C  0.75967327  0.74453016  0.43908006     0.79400
C848        C  0.75023621  0.75685610  0.24767095     0.79300
O849        O  0.95701277  0.53515506  0.99540769    -0.69800
O850        O  0.55334644  0.51685230  0.99724397    -0.70000
O851        O  0.50237616  0.52422216  0.92590590    -0.69900
O852        O  0.50388519  0.52219832  0.07047554    -0.69900
O853        O  0.98554745  0.98050761  0.08231449    -0.69900
O854        O  0.97154079  0.96658116  0.93981974    -0.69900
O855        O  0.53535458  0.97780585  0.00266822    -0.69800
O856        O  0.92513355  0.97452844  0.01402289    -0.70000
V857        V  0.50250350  0.52212867  0.99817924     1.35200
V858        V  0.97946503  0.97503474  0.01084161     1.35200
C859        C  0.92469081  0.00989988  0.00704809     0.79400
C860        C  0.57148969  0.01352416  0.00269249     0.79500
C861        C  0.47794518  0.48942691  0.90138454     0.79400
C862        C  0.48593833  0.48595719  0.09386337     0.79300
O863        O  0.51900139  0.78597030  0.92872330    -0.69800
O864        O  0.50771554  0.77515281  0.07270047    -0.70000
O865        O  0.56975696  0.78682128  0.00580988    -0.69900
O866        O  0.95058954  0.76513579  0.00655474    -0.69900
O867        O  0.92437843  0.69480907  0.01100875    -0.69900
O868        O  0.54105721  0.71679296  0.99373954    -0.69900
O869        O  0.98611815  0.70348510  0.07836109    -0.69800
O870        O  0.97810155  0.70449937  0.93511873    -0.70000
V871        V  0.51270424  0.77938687  0.00064214     1.35200
V872        V  0.98271241  0.70543211  0.00677862     1.35200
C873        C  0.50293645  0.75191132  0.90138199     0.79400
C874        C  0.49512894  0.73841073  0.09373616     0.79500
C875        C  0.57466839  0.75393779  0.00084746     0.79400
C876        C  0.91785994  0.72693057  0.00929357     0.79300
O877        O  0.76629745  0.94163393  0.00592134    -0.69800
O878        O  0.66040816  0.94425524  0.02013037    -0.70000
O879        O  0.70357928  0.93647280  0.94137320    -0.69900
O880        O  0.72391401  0.95004377  0.08452978    -0.69900
O881        O  0.75341217  0.52895677  0.07051819    -0.69900
O882        O  0.75954738  0.53003349  0.92691912    -0.69900
O883        O  0.70615738  0.53632142  0.99451159    -0.69800
O884        O  0.80614265  0.52195906  0.00262404    -0.70000
V885        V  0.71413316  0.94438717  0.01283308     1.35200
V886        V  0.75545531  0.52798234  0.99861107     1.35200
C887        C  0.80171890  0.48410788  0.99985705     0.79400
C888        C  0.66801480  0.50325718  0.99537407     0.79500
C889        C  0.72166303  0.96947128  0.91238098     0.79400
C890        C  0.74223305  0.98784622  0.10433721     0.79300
O891        O  0.81642292  0.78054109  0.01753205    -0.69800
O892        O  0.70329285  0.76800941  0.00799486    -0.70000
O893        O  0.75472751  0.76884099  0.08446441    -0.69900
O894        O  0.76557297  0.77986293  0.94134465    -0.69900
O895        O  0.73226998  0.70896340  0.93440865    -0.69900
O896        O  0.73018739  0.69892184  0.07792224    -0.69900
O897        O  0.67423162  0.69722193  0.00626414    -0.69800
O898        O  0.78789694  0.71046831  0.00591113    -0.70000
V899        V  0.75935494  0.77295913  0.01274451     1.35200
V900        V  0.73163017  0.70520470  0.00628504     1.35200
C901        C  0.82145113  0.74775694  0.01228773     0.79400
C902        C  0.66946873  0.73042131  0.00603672     0.79500
C903        C  0.74198662  0.73219152  0.10559350     0.79400
C904        C  0.75036259  0.74626285  0.91354427     0.79300
O905        O  0.53958406  0.98110744  0.66607266    -0.69800
O906        O  0.52383442  0.58520987  0.65868387    -0.70000
O907        O  0.53166521  0.53678914  0.73233751    -0.69900
O908        O  0.51896179  0.52685803  0.58917373    -0.69900
O909        O  0.95354608  0.99098507  0.60410596    -0.69900
O910        O  0.96672324  0.99586712  0.74799767    -0.69900
O911        O  0.97531238  0.55646682  0.66960538    -0.69800
O912        O  0.95859144  0.93908754  0.67583407    -0.70000
V913        V  0.52385054  0.53114267  0.66087286     1.35200
V914        V  0.96118013  0.99385002  0.67597519     1.35200
C915        C  0.50153018  0.94787946  0.66715099     0.79400
C916        C  0.48825528  0.58521093  0.66535502     0.79500
C917        C  0.49857609  0.51754943  0.76047238     0.79400
C918        C  0.48147829  0.50985517  0.56850181     0.79300
O919        O  0.98046738  0.81009454  0.68242498    -0.69800
O920        O  0.96190923  0.69450014  0.67625672    -0.70000
O921        O  0.97807678  0.75212090  0.75073504    -0.69900
O922        O  0.96405794  0.75250008  0.60815682    -0.69900
O923        O  0.55015107  0.78986362  0.58942267    -0.69900
O924        O  0.56524654  0.80237896  0.73375096    -0.69900
O925        O  0.55745320  0.74258666  0.66487519    -0.69800
O926        O  0.55975047  0.85071020  0.65797148    -0.70000
V927        V  0.97248854  0.75283506  0.67927263     1.35200
V928        V  0.55686655  0.79581571  0.66166347     1.35200
C929        C  0.52574604  0.85317087  0.66520737     0.79400
C930        C  0.52172387  0.70686943  0.66592406     0.79500
C931        C  0.01576471  0.76863016  0.77079102     0.79400
C932        C  0.99591326  0.76225378  0.57921036     0.79300
O933        O  0.75548482  0.49076632  0.74009973    -0.69800
O934        O  0.77293799  0.49926115  0.59767597    -0.70000
O935        O  0.77147418  0.55197302  0.66984064    -0.69900
O936        O  0.76570702  0.94159511  0.68020484    -0.69900
O937        O  0.69528812  0.91487777  0.67444364    -0.69900
O938        O  0.70091667  0.52397922  0.66329248    -0.69900
O939        O  0.70362628  0.97121459  0.60005282    -0.69800
O940        O  0.70509699  0.97354345  0.74522282    -0.70000
V941        V  0.76278918  0.49434459  0.66866329     1.35200
V942        V  0.70537737  0.97284163  0.67256386     1.35200
C943        C  0.74136184  0.99090125  0.76909666     0.79400
C944        C  0.73824513  0.98102348  0.57588250     0.79500
C945        C  0.73863312  0.55734999  0.66762803     0.79400
C946        C  0.72739468  0.90861051  0.67890206     0.79300
O947        O  0.77556489  0.80244749  0.67900234    -0.69800
O948        O  0.75656051  0.68689706  0.67529854    -0.70000
O949        O  0.76719131  0.74670622  0.60488528    -0.69900
O950        O  0.76413540  0.74247817  0.74928923    -0.69900
O951        O  0.69304367  0.71056759  0.74576716    -0.69900
O952        O  0.69803898  0.72698385  0.60358115    -0.69900
O953        O  0.68656548  0.66129713  0.66589400    -0.69800
O954        O  0.70527355  0.77651937  0.68326614    -0.70000
V955        V  0.76458093  0.74411689  0.67708670     1.35200
V956        V  0.69703121  0.71931973  0.67469437     1.35200
C957        C  0.74375065  0.80920546  0.68236238     0.79400
C958        C  0.71849894  0.65447271  0.66906702     0.79500
C959        C  0.73312459  0.73887474  0.57990537     0.79400
C960        C  0.72771024  0.72466317  0.77185070     0.79300
C961        C  0.75205367  0.85446471  0.68392683    -0.14500
C962        C  0.71937981  0.86349388  0.68176657    -0.29600
H963        H  0.78590002  0.88095803  0.68458349     0.14600
H964        H  0.68556070  0.83695195  0.68035947     0.15100
C965        C  0.71135807  0.60965508  0.66596854    -0.14500
C966        C  0.74485588  0.60177884  0.67006054    -0.29600
H967        H  0.67807170  0.58275375  0.66061570     0.14600
H968        H  0.77810973  0.62879869  0.67525084     0.15100
C969        C  0.52946336  0.89666438  0.66469394    -0.14500
C970        C  0.49515856  0.90315232  0.66818683    -0.29600
H971        H  0.05744245  0.91538252  0.66927508     0.14600
H972        H  0.46214283  0.87543703  0.67140401     0.15100
C973        C  0.48641465  0.62610599  0.66650917    -0.14500
C974        C  0.52269237  0.66556502  0.66484857    -0.29600
H975        H  0.05262899  0.66184394  0.66064873     0.14600
H976        H  0.55456744  0.66788439  0.66255550     0.15100
C977        C  0.75426477  0.75084722  0.85811125    -0.14500
C978        C  0.72499043  0.71969106  0.82721029    -0.29600
H979        H  0.78031874  0.78120412  0.84239891     0.14600
H980        H  0.69664657  0.69118493  0.84296561     0.15100
C981        C  0.74434595  0.99529088  0.82491595    -0.14500
C982        C  0.71566850  0.96448604  0.85656990    -0.29600
H983        H  0.77328132  0.02352964  0.84055323     0.14600
H984        H  0.77097556  0.52501886  0.82997262     0.15100
C985        C  0.87305877  0.71985710  0.01016700    -0.14500
C986        C  0.86574950  0.75367050  0.01301721    -0.29600
H987        H  0.84576822  0.68645809  0.00841935     0.14600
H988        H  0.89315454  0.78696269  0.01568303     0.15100
C989        C  0.61879594  0.75933082  0.00360666    -0.14500
C990        C  0.62528580  0.72493064  0.00316648    -0.29600
H991        H  0.64653374  0.79239366  0.00675726     0.14600
H992        H  0.59751871  0.69183657  0.00064257     0.15100
C993        C  0.50304161  0.75382829  0.84564504    -0.14500
C994        C  0.02100367  0.77043339  0.82634009    -0.29600
H995        H  0.96184036  0.71164207  0.83804735     0.14600
H996        H  0.56512910  0.81057704  0.83637448     0.15100
C997        C  0.83960717  0.47725526  0.00021708    -0.14500
C998        C  0.88350840  0.01136771  0.00585906    -0.29600
H999        H  0.84127842  0.94303716  0.00549270     0.14600
H1000       H  0.88768999  0.54416458  0.99895885     0.15100
C1001       C  0.61402245  0.01460618  0.00488379    -0.14500
C1002       C  0.62922800  0.50867838  0.99412937    -0.29600
H1003       H  0.58307274  0.44104868  0.99033542     0.14600
H1004       H  0.58753018  0.94714190  0.01856799     0.15100
C1005       C  0.50395529  0.51980357  0.81603207    -0.14500
C1006       C  0.47344304  0.48903847  0.84586793    -0.29600
H1007       H  0.53415116  0.54586615  0.83246494     0.14600
H1008       H  0.95464850  0.96325669  0.84155546     0.15100
C1009       C  0.76166213  0.74021661  0.49447364    -0.14500
C1010       C  0.73351550  0.74425651  0.52459268    -0.29600
H1011       H  0.78472091  0.73132810  0.51041994     0.14600
H1012       H  0.70823834  0.74960308  0.50785128     0.15100
C1013       C  0.74718350  0.76032633  0.19229672    -0.14500
C1014       C  0.74219136  0.72810802  0.16116536    -0.29600
H1015       H  0.74847006  0.78960178  0.17692596     0.14600
H1016       H  0.73852897  0.69789950  0.17686789     0.15100
C1017       C  0.72638783  0.51024443  0.48266613    -0.14500
C1018       C  0.73802040  0.97970309  0.51973507    -0.29600
H1019       H  0.79536669  0.97532524  0.51351267     0.14600
H1020       H  0.77672725  0.49568363  0.49678986     0.15100
C1021       C  0.75014397  0.99443177  0.15958948    -0.14500
C1022       C  0.76213103  0.97029347  0.18807571    -0.29600
H1023       H  0.72737523  0.46224642  0.16955608     0.14600
H1024       H  0.76680484  0.94525496  0.17018397     0.15100
C1025       C  0.52222276  0.75586989  0.48299876    -0.14500
C1026       C  0.50397687  0.77132477  0.51514338    -0.29600
H1027       H  0.04287650  0.75221200  0.50670350     0.14600
H1028       H  0.47926919  0.77877434  0.50129344     0.15100
C1029       C  0.89280339  0.64085209  0.33974191    -0.14500
C1030       C  0.85287711  0.63715071  0.34065838    -0.29600
H1031       H  0.89573346  0.61167973  0.33718006     0.14600
H1032       H  0.85024015  0.66650163  0.34320436     0.15100
C1033       C  0.65469153  0.86778084  0.33719560    -0.14500
C1034       C  0.61633626  0.86693864  0.33274230    -0.29600
H1035       H  0.65526763  0.83726019  0.33891743     0.14600
H1036       H  0.61548207  0.89732291  0.33213751     0.15100
C1037       C  0.49482313  0.73357171  0.14927304    -0.14500
C1038       C  0.49228544  0.76169319  0.18116101    -0.29600
H1039       H  0.49612612  0.70548832  0.16435937     0.14600
H1040       H  0.98856992  0.78920642  0.17287921     0.15100
C1041       C  0.47658532  0.50764696  0.51300561    -0.14500
C1042       C  0.50465823  0.50300544  0.48321995    -0.29600
H1043       H  0.44888289  0.50890219  0.49635757     0.14600
H1044       H  0.04034348  0.99925844  0.51012838     0.15100
C1045       C  0.88783959  0.89284214  0.34370616    -0.14500
C1046       C  0.87919379  0.85120710  0.34216859    -0.29600
H1047       H  0.86104291  0.89972007  0.34509289     0.14600
H1048       H  0.90574170  0.84406782  0.33947811     0.15100
C1049       C  0.63092529  0.65173285  0.34214765    -0.14500
C1050       C  0.62116427  0.61030617  0.33419300    -0.29600
H1051       H  0.60491725  0.65938711  0.34718364     0.14600
H1052       H  0.64731796  0.60291608  0.32871072     0.15100
C1053       C  0.48852299  0.48346604  0.14940627    -0.14500
C1054       C  0.49472799  0.51642249  0.17982487    -0.29600
H1055       H  0.98274207  0.45552832  0.16400406     0.14600
H1056       H  0.49853248  0.96325467  0.16403994     0.15100
loop_ 
_geom_bond_atom_site_label_1 
_geom_bond_atom_site_label_2 
_geom_bond_distance 
_geom_bond_site_symmetry_2 
_ccdc_geom_bond_type 
O1           C11   1.263       .  A
O1          V537   1.888       .  S
O2           C12   1.265       .  A
O2          V273   1.904   1_545  S
O3           C13   1.264       .  A
O3            V9   1.902       .  S
O4           C14   1.266   1_455  A
O4            V9   1.900       .  S
O5          C806   1.266   1_545  A
O5           V10   1.905       .  S
O6          C805   1.266       .  A
O6           V10   1.905       .  S
O7           C12   1.264       .  A
O7          V538   1.895   1_455  S
O8           C11   1.266       .  A
O8          V274   1.908       .  S
V9          O529   1.894   1_455  S
V9          O266   1.892       .  S
V9          V802   2.087   1_455  T
V10         O535   1.893       .  S
V10         O272   1.894   1_545  S
V10         V801   2.087   1_545  T
C11         C253   1.474       .  S
C12         C258   1.476       .  S
C13         O798   1.265   1_455  A
C13         C514   1.473       .  S
C14         O797   1.262       .  A
C14         C526   1.471       .  S
O15          C25   1.264       .  A
O15          V23   1.904       .  S
O16          C26   1.261       .  A
O16         V551   1.892       .  S
O17          C27   1.264       .  A
O17          V23   1.904       .  S
O18          C28   1.264       .  A
O18          V23   1.904       .  S
O19         C556   1.264       .  A
O19          V24   1.897       .  S
O20         C555   1.262       .  A
O20          V24   1.896       .  S
O21          C26   1.268       .  A
O21          V24   1.911       .  S
O22          C25   1.265       .  A
O22         V552   1.899       .  S
V23         O544   1.905   1_455  S
V23         V552   2.086       .  T
V24         O550   1.908       .  S
V24         V551   2.087       .  T
C25         C242   1.478       .  S
C26         C237   1.475       .  S
C27         O548   1.266       .  A
C27         C246   1.480       .  S
C28         O547   1.266       .  A
C28         C233   1.479       .  S
O29          C39   1.263       .  A
O29          V37   1.900       .  S
O30          C40   1.263       .  A
O30         V301   1.896       .  S
O31          C41   1.266       .  A
O31          V37   1.902       .  S
O32          C42   1.264       .  A
O32          V37   1.904       .  S
O33         C306   1.263       .  A
O33          V38   1.899       .  S
O34         C305   1.264       .  A
O34          V38   1.902       .  S
O35          C40   1.266       .  A
O35          V38   1.907       .  S
O36          C39   1.267       .  A
O36         V302   1.904   1_545  S
V37         O294   1.900   1_545  S
V37         V302   2.086   1_545  T
V38         O300   1.909       .  S
V38         V301   2.087       .  T
C39         C238   1.478       .  S
C40         C241   1.475       .  S
C41         O298   1.263   1_545  A
C41         C225   1.477       .  S
C42         O297   1.265   1_545  A
C42         C494   1.474       .  S
O43          C53   1.265       .  A
O43          V51   1.903       .  S
O44          C54   1.264       .  A
O44          V51   1.898       .  S
O45          C55   1.261       .  A
O45          V51   1.893       .  S
O46          C56   1.264       .  A
O46          V51   1.891       .  S
O47          C56   1.264       .  A
O47          V52   1.905       .  S
O48          C55   1.266       .  A
O48          V52   1.904       .  S
O49          C54   1.264       .  A
O49          V52   1.898       .  S
O50          C53   1.263       .  A
O50          V52   1.897       .  S
V51          V52   2.087       .  T
C53         C257   1.473       .  S
C54         C254   1.470       .  S
C55         C217   1.469       .  S
C56         C221   1.473       .  S
O57         C331   1.264       .  A
O57         V593   1.903       .  S
O58         C332   1.264       .  A
O58          V65   1.900       .  S
O59          C69   1.266   1_445  A
O59          V65   1.903   1_556  S
O60          C70   1.264       .  A
O60          V65   1.905       .  S
O61         C862   1.261       .  A
O61          V66   1.894   1_554  S
O62         C861   1.261       .  A
O62          V66   1.892       .  S
O63          C68   1.264       .  A
O63         V594   1.901   1_455  S
O64          C67   1.266       .  A
O64          V66   1.902   1_554  S
V65         O585   1.898   1_455  S
V65         V858   2.087   1_445  T
V66         O591   1.903       .  S
V66         V857   2.087       .  T
C67         O321   1.261   1_554  A
C67         C206   1.469       .  S
C68         O322   1.263       .  A
C68         C209   1.471       .  S
C69         O854   1.261       .  A
C69         C214   1.470       .  S
C70         O853   1.264   1_445  A
C70         C261   1.474       .  S
O71          C81   1.264       .  A
O71          V79   1.904       .  S
O72          C82   1.264       .  A
O72          V79   1.902   1_554  S
O73          C83   1.265       .  A
O73          V79   1.903   1_554  S
O74          C84   1.265       .  A
O74         V607   1.895       .  S
O75          C84   1.264       .  A
O75          V80   1.904       .  S
O76          C83   1.262       .  A
O76         V608   1.890   1_455  S
O77         C610   1.263       .  A
O77          V80   1.901   1_554  S
O78         C609   1.263       .  A
O78          V80   1.899       .  S
V79         O602   1.906   1_455  S
V79         V608   2.086   1_456  T
V80         O604   1.901       .  S
V80         V607   2.086       .  T
C81         O606   1.266   1_455  A
C81         C201   1.478       .  S
C82         O605   1.267   1_455  A
C82         C245   1.479       .  S
C83         C197   1.470       .  S
C84         C193   1.476       .  S
O85         C359   1.261       .  A
O85          V93   1.894       .  S
O86         C360   1.264   1_554  A
O86          V93   1.895       .  S
O87          C97   1.266       .  A
O87          V93   1.909   1_556  S
O88          C98   1.267       .  A
O88          V93   1.909       .  S
O89         C362   1.265   1_545  A
O89          V94   1.903       .  S
O90         C361   1.264   1_545  A
O90          V94   1.903   1_556  S
O91          C96   1.268   1_546  A
O91          V94   1.910   1_556  S
O92          C95   1.266   1_544  A
O92          V94   1.906       .  S
V93         V358   2.086   1_554  T
V94         V357   2.086   1_545  T
C95         O349   1.264       .  A
C95         C205   1.479       .  S
C96         O350   1.264       .  A
C96         C210   1.484       .  S
C97         O354   1.264       .  A
C97         C190   1.477       .  S
C98         O353   1.261       .  A
C98         C229   1.473       .  S
O99         C109   1.261   1_554  A
O99         V107   1.890   1_554  S
O100        C110   1.262   1_556  A
O100        V107   1.889       .  S
O101        C111   1.266       .  A
O101        V107   1.907   1_554  S
O102        C112   1.267       .  A
O102        V107   1.907       .  S
O103        C112   1.260       .  A
O103        V108   1.890       .  S
O104        C111   1.261       .  A
O104        V108   1.889   1_554  S
O105        C110   1.266       .  A
O105        V108   1.905   1_554  S
O106        C109   1.267       .  A
O106        V108   1.908       .  S
V107        V108   2.086       .  T
C109        C194   1.472       .  S
C110        C198   1.471       .  S
C111        C222   1.467       .  S
C112        C185   1.467       .  S
O113        C123   1.264   1_455  A
O113        V385   1.894       .  S
O114        C124   1.268   1_455  A
O114        V121   1.909       .  S
O115        C125   1.260       .  A
O115        V121   1.892       .  S
O116        C126   1.263   1_455  A
O116        V121   1.892       .  S
O117        C918   1.264       .  A
O117        V122   1.902       .  S
O118        C917   1.266       .  A
O118        V122   1.900       .  S
O119        C652   1.266       .  A
O119        V386   1.900       .  S
O120        C651   1.262       .  A
O120        V122   1.892       .  S
V121        O377   1.913   1_545  S
V121        V914   2.087   1_445  T
V122        O383   1.895       .  S
V122        V913   2.087       .  T
C123        O648   1.266       .  A
C123        C178   1.481       .  S
C124        O647   1.260       .  A
C124        C181   1.471       .  S
C125        O910   1.267   1_445  A
C125        C213   1.469       .  S
C126        O909   1.266   1_545  A
C126        C249   1.474       .  S
O127        C665   1.265       .  A
O127        V135   1.894       .  S
O128        C666   1.262       .  A
O128        V135   1.893       .  S
O129        C139   1.265       .  A
O129        V135   1.899       .  S
O130        C140   1.264       .  A
O130        V135   1.901       .  S
O131        C668   1.268       .  A
O131        V136   1.912       .  S
O132        C667   1.267       .  A
O132        V136   1.913       .  S
O133        C138   1.260       .  A
O133        V136   1.892       .  S
O134        C137   1.262       .  A
O134        V136   1.893       .  S
V135        V664   2.085       .  T
V136        V663   2.085   1_455  T
C137        O655   1.267   1_455  A
C137        C177   1.475       .  S
C138        O656   1.268   1_455  A
C138        C182   1.473       .  S
C139        O660   1.264       .  A
C139        C202   1.474       .  S
C140        O659   1.266       .  A
C140        C762   1.476       .  S
O141        C415   1.267       .  A
O141        V149   1.912       .  S
O142        C416   1.268       .  A
O142        V149   1.914       .  S
O143        C153   1.260       .  A
O143        V149   1.889       .  S
O144        C154   1.266       .  A
O144        V413   1.905       .  S
O145        C154   1.262       .  A
O145        V150   1.893       .  S
O146        C153   1.269       .  A
O146        V414   1.915   1_545  S
O147        C152   1.265       .  A
O147        V150   1.904       .  S
O148        C151   1.265       .  A
O148        V150   1.905       .  S
V149        O408   1.890   1_545  S
V149        V414   2.087   1_545  T
V150        O410   1.895       .  S
V150        V413   2.086       .  T
C151        O405   1.264       .  A
C151        C189   1.474       .  S
C152        O406   1.265       .  A
C152        C226   1.476       .  S
C153        C174   1.475       .  S
C154        C170   1.471       .  S
O155        C165   1.264       .  A
O155        V163   1.903       .  S
O156        C166   1.267       .  A
O156        V163   1.903       .  S
O157        C167   1.265       .  A
O157        V163   1.898       .  S
O158        C168   1.262       .  A
O158        V163   1.900       .  S
O159        C168   1.265       .  A
O159        V164   1.898       .  S
O160        C167   1.263       .  A
O160        V164   1.899       .  S
O161        C166   1.263       .  A
O161        V164   1.902       .  S
O162        C165   1.265       .  A
O162        V164   1.895       .  S
V163        V164   2.086       .  T
C165        C169   1.475       .  S
C166        C173   1.480       .  S
C167        C218   1.471       .  S
C168        C186   1.471       .  S
C169        C170   1.343       .  D
C169        H171   1.087       .  S
C170        H172   1.087       .  S
C173        C174   1.342       .  D
C173        H175   1.086       .  S
C174        H176   1.087       .  S
C177        C178   1.345   1_455  D
C177        H707   1.087       .  S
C178        H180   1.086       .  S
H179        C705   1.086       .  S
C181        C182   1.338   1_655  D
C181        H711   1.087       .  S
C182        H184   1.087       .  S
H183        C709   1.087       .  S
C185        C186   1.338       .  D
C185        H187   1.087       .  S
C186        H188   1.087       .  S
C189        C190   1.344       .  D
C189        H191   1.087       .  S
C190        H456   1.087       .  S
H192        C454   1.087       .  S
C193        C194   1.342       .  D
C193        H195   1.086       .  S
C194        H196   1.087       .  S
C197        C198   1.346       .  D
C197        H199   1.087       .  S
C198        H200   1.087       .  S
C201        C730   1.347       .  D
C201        H731   1.087   1_455  S
C202        C729   1.343       .  D
C202        H732   1.086       .  S
H203        C729   1.087       .  S
H204        C730   1.086       .  S
C205        C470   1.345   1_565  D
C205        H471   1.087       .  S
C206        C469   1.340       .  D
C206        H472   1.087       .  S
H207        C469   1.087       .  S
H208        C470   1.087       .  S
C209        C474   1.343       .  D
C209        H475   1.087       .  S
C210        C473   1.345   1_565  D
C210        H476   1.087       .  S
H211        C473   1.087       .  S
H212        C474   1.087       .  S
C213        C214   1.338   1_445  D
C213        H215   1.087       .  S
C214       H1008   1.087       .  S
H216       C1006   1.087       .  S
C217        C218   1.340       .  D
C217        H219   1.087       .  S
C218        H220   1.087       .  S
C221        C222   1.341       .  D
C221        H223   1.087       .  S
C222        H224   1.087       .  S
C225        C490   1.341       .  D
C225        H491   1.086       .  S
C226        C489   1.344       .  D
C226        H492   1.087       .  S
H227        C489   1.087       .  S
H228        C490   1.087       .  S
C229        C230   1.341       .  D
C229        H495   1.086       .  S
C230        C306   1.476       .  S
C230        H232   1.087       .  S
H231        C493   1.087       .  S
C233        C234   1.342       .  D
C233        H763   1.087       .  S
C234        C668   1.474       .  S
C234        H236   1.086   1_455  S
H235        C761   1.087       .  S
C237        C238   1.342       .  D
C237        H239   1.087       .  S
C238        H240   1.087       .  S
C241        C242   1.344       .  D
C241        H243   1.087       .  S
C242        H244   1.087       .  S
C245        C246   1.344       .  D
C245        H247   1.087       .  S
C246        H776   1.087       .  S
H248        C774   1.087       .  S
C249        C250   1.343   1_655  D
C249        H251   1.087       .  S
C250        C277   1.470   1_545  S
C250       H1044   1.087   1_545  S
H252       C1042   1.087       .  S
C253        C254   1.345       .  D
C253        H255   1.087       .  S
C254        H256   1.087       .  S
C257        C258   1.344       .  D
C257        H259   1.087       .  S
C258        H260   1.087       .  S
C261        C262   1.342   1_545  D
C261        H791   1.087       .  S
C262        C278   1.471       .  S
C262        H528   1.087       .  S
H263        C789   1.087       .  S
H264        C526   1.087       .  S
O265        C275   1.267       .  A
O265        V801   1.905       .  S
O266        C276   1.262       .  A
O267        C277   1.263       .  A
O267        V273   1.897       .  S
O268        C278   1.262       .  A
O268        V273   1.896       .  S
O269        C542   1.262       .  A
O269        V274   1.897       .  S
O270        C541   1.263       .  A
O270        V274   1.895       .  S
O271        C276   1.266       .  A
O271        V802   1.902   1_455  S
O272        C275   1.262       .  A
V273        O793   1.904   1_455  S
V273        V538   2.087   1_465  T
V274        O799   1.906       .  S
V274        V537   2.086       .  T
C275        C517   1.473       .  S
C276        C522   1.469       .  S
C277        O534   1.265   1_465  A
C278        O533   1.266   1_465  A
O279        C289   1.267       .  A
O279        V287   1.909       .  S
O280        C290   1.266       .  A
O280        V815   1.907       .  S
O281        C291   1.264   1_455  A
O281        V287   1.895       .  S
O282        C292   1.262       .  A
O282        V287   1.897       .  S
O283        C820   1.266       .  A
O283        V288   1.900       .  S
O284        C819   1.263       .  A
O284        V288   1.901       .  S
O285        C290   1.265       .  A
O285        V288   1.902       .  S
O286        C289   1.263       .  A
O286        V816   1.896   1_455  S
V287        O808   1.910   1_455  S
V287        V816   2.087   1_455  T
V288        O814   1.897       .  S
V288        V815   2.088       .  T
C289        C506   1.476       .  S
C290        C501   1.480       .  S
C291        O812   1.264       .  A
C291        C510   1.473       .  S
C292        O811   1.266   1_455  A
C292        C497   1.472       .  S
O293        C303   1.265       .  A
O293        V301   1.901       .  S
O294        C304   1.265       .  A
O295        C305   1.265       .  A
O295        V301   1.904       .  S
O296        C306   1.266       .  A
O296        V301   1.905       .  S
O297        V302   1.901       .  S
O298        V302   1.903       .  S
O299        C304   1.265       .  A
O299        V302   1.906       .  S
O300        C303   1.266       .  A
C303        C502   1.482       .  S
C304        C505   1.480       .  S
C305        C489   1.475       .  S
O307        C317   1.264       .  A
O307        V315   1.894       .  S
O308        C318   1.262       .  A
O308        V315   1.898       .  S
O309        C319   1.265       .  A
O309        V315   1.905       .  S
O310        C320   1.266       .  A
O310        V315   1.905       .  S
O311        C320   1.264       .  A
O311        V316   1.901       .  S
O312        C319   1.264       .  A
O312        V316   1.900       .  S
O313        C318   1.266       .  A
O313        V316   1.902       .  S
O314        C317   1.263       .  A
O314        V316   1.900       .  S
V315        V316   2.086       .  T
C317        C521   1.472       .  S
C318        C518   1.474       .  S
C319        C481   1.474       .  S
C320        C485   1.477       .  S
O321        V857   1.892       .  S
O322        V329   1.892       .  S
O323        C333   1.266   1_455  A
O323        V329   1.906       .  S
O324        C334   1.266   1_455  A
O324        V329   1.905   1_554  S
O325        C598   1.265   1_565  A
O325        V330   1.899       .  S
O326        C597   1.264   1_565  A
O326        V330   1.901   1_556  S
O327        C332   1.268   1_565  A
O327        V858   1.913   1_455  S
O328        C331   1.266   1_564  A
O328        V330   1.904       .  S
V329        O849   1.897   1_455  S
V329        V594   2.086   1_455  T
V330        O855   1.907       .  S
V330        V593   2.087   1_564  T
C331        C470   1.479       .  S
C332        C473   1.483       .  S
C333        O590   1.261       .  A
C333        C478   1.468       .  S
C334        O589   1.261       .  A
C334        C525   1.469       .  S
O335        C345   1.266   1_455  A
O335        V343   1.906   1_556  S
O336        C346   1.266   1_455  A
O336        V343   1.905       .  S
O337        C347   1.262       .  A
O337        V343   1.894       .  S
O338        C348   1.265       .  A
O338        V871   1.901   1_556  S
O339        C348   1.264       .  A
O339        V344   1.898       .  S
O340        C347   1.266       .  A
O340        V872   1.900   1_455  S
O341        C874   1.262       .  A
O341        V344   1.895   1_554  S
O342        C873   1.262       .  A
O342        V344   1.893       .  S
V343        O866   1.892   1_455  S
V343        V872   2.087   1_455  T
V344        O868   1.897       .  S
V344        V871   2.086   1_556  T
C345        O870   1.262       .  A
C345        C465   1.469       .  S
C346        O869   1.262       .  A
C346        C509   1.469       .  S
C347        C461   1.471       .  S
C348        C457   1.473       .  S
O349        V357   1.901   1_556  S
O350        V357   1.904       .  S
O351        C361   1.264       .  A
O351        V357   1.902   1_556  S
O352        C362   1.264       .  A
O352        V357   1.901       .  S
O353        V358   1.896   1_554  S
O354        V358   1.896       .  S
O355        C360   1.264       .  A
O355        V358   1.899       .  S
O356        C359   1.266   1_556  A
O356        V358   1.899       .  S
C359        C469   1.471       .  S
C360        C474   1.470       .  S
C361        C454   1.473       .  S
C362        C493   1.474       .  S
O363        C373   1.264   1_554  A
O363        V371   1.902       .  S
O364        C374   1.266       .  A
O364        V371   1.901       .  S
O365        C375   1.265       .  A
O365        V371   1.902       .  S
O366        C376   1.263       .  A
O366        V371   1.901   1_556  S
O367        C376   1.266       .  A
O367        V372   1.905       .  S
O368        C375   1.265       .  A
O368        V372   1.905   1_554  S
O369        C374   1.262       .  A
O369        V372   1.894   1_554  S
O370        C373   1.264       .  A
O370        V372   1.896       .  S
V371        V372   2.086   1_554  T
C373        C458   1.474       .  S
C374        C462   1.471       .  S
C375        C486   1.478       .  S
C376        C449   1.474       .  S
O377        C387   1.268   1_455  A
O378        C388   1.262       .  A
O378        V385   1.895       .  S
O379        C389   1.265       .  A
O379        V385   1.906       .  S
O380        C390   1.266   1_455  A
O380        V385   1.906       .  S
O381        C654   1.263       .  A
O381        V386   1.899       .  S
O382        C653   1.264       .  A
O382        V386   1.898       .  S
O383        C916   1.261       .  A
O384        C915   1.264       .  A
O384        V386   1.904   1_565  S
V385        V650   2.086   1_455  T
V386        V649   2.086       .  T
C387        O912   1.260       .  A
C387        C442   1.471       .  S
C388        O911   1.267   1_455  A
C388        C445   1.474       .  S
C389        O646   1.263   1_455  A
C389        C477   1.474       .  S
C390        O645   1.262       .  A
C390        C513   1.470       .  S
O391        C929   1.268       .  A
O391        V399   1.912       .  S
O392        C930   1.269       .  A
O392        V399   1.913       .  S
O393        C403   1.262       .  A
O393        V399   1.886       .  S
O394        C404   1.259       .  A
O394        V399   1.886       .  S
O395        C932   1.266   1_455  A
O395        V400   1.903       .  S
O396        C931   1.264       .  A
O396        V400   1.906       .  S
O397        C402   1.266   1_455  A
O397        V400   1.901       .  S
O398        C401   1.264       .  A
O398        V400   1.904       .  S
V399        V928   2.086       .  T
V400        V927   2.086   1_455  T
C401        O919   1.266   1_455  A
C401        C441   1.478       .  S
C402        O920   1.263       .  A
C402        C446   1.476       .  S
C403        O924   1.268       .  A
C403        C466   1.480       .  S
C404        O923   1.269       .  A
C404       C1026   1.470       .  S
O405        V413   1.899       .  S
O406        V413   1.901       .  S
O407        C417   1.265       .  A
O407        V413   1.907       .  S
O408        C418   1.260       .  A
O409        C418   1.269       .  A
O409        V414   1.914       .  S
O410        C417   1.264       .  A
O411        C416   1.261   1_565  A
O411        V414   1.891       .  S
O412        C415   1.262   1_565  A
O412        V414   1.891       .  S
C415        C453   1.476       .  S
C416        C490   1.474       .  S
C417        C438   1.478       .  S
C418        C434   1.475       .  S
O419        C429   1.267       .  A
O419        V427   1.904       .  S
O420        C430   1.266       .  A
O420        V427   1.906       .  S
O421        C431   1.264       .  A
O421        V427   1.900       .  S
O422        C432   1.265       .  A
O422        V427   1.900       .  S
O423        C432   1.265       .  A
O423        V428   1.905       .  S
O424        C431   1.265       .  A
O424        V428   1.905       .  S
O425        C430   1.263       .  A
O425        V428   1.897       .  S
O426        C429   1.263       .  A
O426        V428   1.900       .  S
V427        V428   2.085       .  T
C429        C433   1.479       .  S
C430        C437   1.474       .  S
C431        C482   1.474       .  S
C432        C450   1.476       .  S
C433        C434   1.341       .  D
C433        H435   1.087       .  S
C434        H436   1.087       .  S
C437        C438   1.345       .  D
C437        H439   1.087       .  S
C438        H440   1.086       .  S
C441        C442   1.342   1_455  D
C441        H971   1.086       .  S
C442        H444   1.087       .  S
H443        C969   1.087       .  S
C445        C446   1.342   1_455  D
C445        H975   1.087       .  S
C446        H448   1.087       .  S
H447        C973   1.087       .  S
C449        C450   1.343       .  D
C449        H451   1.087       .  S
C450        H452   1.087       .  S
C453        C454   1.346   1_545  D
C453        H455   1.087       .  S
C457        C458   1.344       .  D
C457        H459   1.087       .  S
C458        H460   1.087   1_556  S
C461        C462   1.340       .  D
C461        H463   1.087       .  S
C462        H464   1.087       .  S
C465        C994   1.341   1_655  D
C465        H995   1.087       .  S
C466        C993   1.346       .  D
C466        H996   1.086       .  S
H467        C993   1.087       .  S
H468        C994   1.087       .  S
C477        C478   1.342   1_455  D
C477        H479   1.087       .  S
C478        H744   1.087       .  S
H480        C742   1.087   1_565  S
C481        C482   1.344       .  D
C481        H483   1.087       .  S
C482        H484   1.087       .  S
C485        C486   1.344       .  D
C485        H487   1.087       .  S
C486        H488   1.087       .  S
C493        C494   1.343   1_565  D
C494        H496   1.087       .  S
C497        C498   1.340   1_455  D
C497       H1027   1.087       .  S
C498        C932   1.470       .  S
C498        H500   1.087       .  S
H499       C1025   1.087       .  S
C501        C502   1.347       .  D
C501        H503   1.087       .  S
C502        H504   1.086       .  S
C505        C506   1.344       .  D
C505        H507   1.086       .  S
C506        H508   1.087       .  S
C509        C510   1.341       .  D
C509        H511   1.087   1_655  S
C510       H1040   1.087       .  S
H512       C1038   1.087       .  S
C513        C514   1.341   1_655  D
C513        H515   1.087       .  S
C514        H780   1.087       .  S
H516        C778   1.087       .  S
C517        C518   1.342       .  D
C517        H519   1.087       .  S
C518        H520   1.087       .  S
C521        C522   1.342       .  D
C521        H523   1.087       .  S
C522        H524   1.087       .  S
C525        C526   1.339       .  D
C525       H1055   1.087       .  S
H527       C1053   1.087       .  S
O529        C539   1.264       .  A
O530        C540   1.265       .  A
O530        V801   1.906   1_545  S
O531        C541   1.265       .  A
O531        V537   1.905       .  S
O532        C542   1.267       .  A
O532        V537   1.904       .  S
O533        V538   1.905       .  S
O534        V538   1.904       .  S
O535        C540   1.264       .  A
O536        C539   1.265       .  A
O536        V802   1.904       .  S
V537        O794   1.889       .  S
V538        O800   1.893   1_545  S
C539        C781   1.474       .  S
C540        C786   1.476       .  S
C541       C1042   1.471       .  S
C542       C1054   1.473       .  S
O543        C553   1.261       .  A
O543        V551   1.890       .  S
O544        C554   1.267       .  A
O545        C555   1.267       .  A
O545        V551   1.909       .  S
O546        C556   1.266       .  A
O546        V551   1.909       .  S
O547        V552   1.904       .  S
O548        V552   1.906       .  S
O549        C554   1.264       .  A
O549        V552   1.905   1_655  S
O550        C553   1.267       .  A
C553        C770   1.471       .  S
C554        C765   1.482       .  S
C555        C774   1.475       .  S
C556        C761   1.479       .  S
O557        C567   1.268       .  A
O557        V565   1.913   1_545  S
O558        C568   1.263       .  A
O558        V829   1.901       .  S
O559        C569   1.264       .  A
O559        V565   1.903       .  S
O560        C570   1.265       .  A
O560        V565   1.902       .  S
O561        C834   1.265       .  A
O561        V566   1.906       .  S
O562        C833   1.266       .  A
O562        V566   1.906       .  S
O563        C568   1.266       .  A
O563        V566   1.897       .  S
O564        C567   1.263       .  A
O564        V830   1.897   1_545  S
V565        O822   1.904       .  S
V565        V830   2.086       .  T
V566        O828   1.909       .  S
V566        V829   2.086       .  T
C567        C766   1.480       .  S
C568        C769   1.475       .  S
C569        O826   1.267       .  A
C569        C753   1.481       .  S
C570        O825   1.267       .  A
C570       C1022   1.483       .  S
O571        C581   1.265       .  A
O571        V579   1.903       .  S
O572        C582   1.264       .  A
O572        V579   1.900       .  S
O573        C583   1.263       .  A
O573        V579   1.901       .  S
O574        C584   1.265       .  A
O574        V579   1.899       .  S
O575        C584   1.264       .  A
O575        V580   1.903       .  S
O576        C583   1.266       .  A
O576        V580   1.901       .  S
O577        C582   1.264       .  A
O577        V580   1.898       .  S
O578        C581   1.263       .  A
O578        V580   1.896       .  S
V579        V580   2.086       .  T
C581        C785   1.472       .  S
C582        C782   1.472       .  S
C583        C745   1.473       .  S
C584        C749   1.475       .  S
O585        C859   1.263       .  A
O586        C860   1.264       .  A
O586        V593   1.903   1_554  S
O587        C597   1.265       .  A
O587        V593   1.901       .  S
O588        C598   1.263       .  A
O588        V593   1.901   1_554  S
O589        V594   1.892   1_554  S
O590        V594   1.892       .  S
O591        C596   1.265       .  A
O592        C595   1.266   1_554  A
O592        V594   1.900   1_554  S
C595        O849   1.262       .  A
C595        C734   1.472       .  S
C596        O850   1.263       .  A
C596        C737   1.471       .  S
C597        C742   1.472       .  S
C598        C789   1.473       .  S
O599        C609   1.265       .  A
O599        V607   1.906       .  S
O600        C610   1.266       .  A
O600        V607   1.904   1_554  S
O601        C611   1.262       .  A
O601        V607   1.896       .  S
O602        C612   1.266       .  A
O603        C612   1.261   1_554  A
O603        V608   1.890       .  S
O604        C611   1.266       .  A
O605        V608   1.908       .  S
O606        V608   1.906   1_556  S
C609        C729   1.473       .  S
C610        C773   1.476       .  S
C611        C725   1.473       .  S
C612        C721   1.470       .  S
O613        C887   1.261       .  A
O613        V621   1.893       .  S
O614        C888   1.263       .  A
O614        V621   1.892       .  S
O615        C625   1.267       .  A
O615        V621   1.912       .  S
O616        C626   1.267       .  A
O616        V621   1.910   1_554  S
O617        C890   1.263   1_545  A
O617        V622   1.901       .  S
O618        C889   1.265   1_545  A
O618        V622   1.902   1_556  S
O619        C624   1.267   1_545  A
O619        V622   1.907       .  S
O620        C623   1.267   1_545  A
O620        V622   1.906       .  S
V621        V886   2.087       .  T
V622        V885   2.084   1_545  T
C623        O877   1.263       .  A
C623        C733   1.478       .  S
C624        O878   1.264       .  A
C624        C738   1.481       .  S
C625        O882   1.263       .  A
C625        C718   1.476       .  S
C626        O881   1.264       .  A
C626        C757   1.480       .  S
O627        C637   1.263       .  A
O627        V635   1.902       .  S
O628        C638   1.266       .  A
O628        V635   1.901       .  S
O629        C639   1.266       .  A
O629        V635   1.906   1_554  S
O630        C640   1.264       .  A
O630        V635   1.905       .  S
O631        C640   1.264       .  A
O631        V636   1.895       .  S
O632        C639   1.262       .  A
O632        V636   1.895   1_554  S
O633        C638   1.262       .  A
O633        V636   1.897       .  S
O634        C637   1.265       .  A
O634        V636   1.894       .  S
V635        V636   2.087       .  T
C637        C722   1.474       .  S
C638        C726   1.473       .  S
C639        C750   1.472       .  S
C640        C713   1.472       .  S
O641        C651   1.267       .  A
O641        V913   1.909       .  S
O642        C652   1.262       .  A
O642        V649   1.898       .  S
O643        C653   1.264       .  A
O643        V649   1.903       .  S
O644        C654   1.266       .  A
O644        V649   1.902       .  S
O645        V650   1.894       .  S
O646        V650   1.891       .  S
O647        V914   1.888   1_545  S
O648        V650   1.910       .  S
V649        O905   1.896   1_545  S
V650        O911   1.906       .  S
C651        C706   1.473       .  S
C652        C709   1.474       .  S
C653        C741   1.473       .  S
C654        C777   1.473       .  S
O655        V663   1.911       .  S
O656        V663   1.905       .  S
O657        C667   1.264   1_655  A
O657        V663   1.897       .  S
O658        C668   1.262   1_655  A
O658        V663   1.896       .  S
O659        V664   1.906       .  S
O660        V664   1.905       .  S
O661        C666   1.266       .  A
O661        V664   1.904       .  S
O662        C665   1.265       .  A
O662        V664   1.909       .  S
C665        C705   1.479       .  S
C666        C710   1.472       .  S
C667        C730   1.479       .  S
O669        C943   1.262   1_545  A
O669        V677   1.897   1_545  S
O670        C944   1.263       .  A
O670        V677   1.900       .  S
O671        C681   1.266       .  A
O671        V677   1.907   1_545  S
O672        C682   1.265       .  A
O672        V941   1.898       .  S
O673        C682   1.263       .  A
O673        V678   1.900       .  S
O674        C681   1.264       .  A
O674        V942   1.894   1_545  S
O675        C680   1.267       .  A
O675        V678   1.908       .  S
O676        C679   1.265       .  A
O676        V678   1.909       .  S
V677        O936   1.905       .  S
V677        V942   2.085       .  T
V678        O938   1.898       .  S
V678        V941   2.086       .  T
C679        O933   1.265       .  A
C679        C717   1.480       .  S
C680        O934   1.263       .  A
C680        C754   1.477       .  S
C681        C702   1.476       .  S
C682        C698   1.474       .  S
O683        C693   1.263       .  A
O683        V691   1.896       .  S
O684        C694   1.265       .  A
O684        V691   1.901       .  S
O685        C695   1.266       .  A
O685        V691   1.906       .  S
O686        C696   1.265       .  A
O686        V691   1.904       .  S
O687        C696   1.262       .  A
O687        V692   1.896       .  S
O688        C695   1.262       .  A
O688        V692   1.896       .  S
O689        C694   1.265       .  A
O689        V692   1.901       .  S
O690        C693   1.266       .  A
O690        V692   1.902       .  S
V691        V692   2.087       .  T
C693        C697   1.472       .  S
C694        C701   1.475       .  S
C695        C746   1.472       .  S
C696        C714   1.469       .  S
C697        C698   1.343       .  D
C697        H699   1.087       .  S
C698        H700   1.087       .  S
C701        C702   1.346       .  D
C701        H703   1.087       .  S
C702        H704   1.086       .  S
C705        C706   1.344       .  D
C706        H708   1.087       .  S
C709        C710   1.341       .  D
C710        H712   1.087       .  S
C713        C714   1.341       .  D
C713        H715   1.087       .  S
C714        H716   1.087       .  S
C717        C718   1.344       .  D
C717        H719   1.086       .  S
C718        H984   1.087       .  S
H720        C982   1.086       .  S
C721        C722   1.342       .  D
C721        H723   1.087       .  S
C722        H724   1.087       .  S
C725        C726   1.342       .  D
C725        H727   1.087       .  S
C726        H728   1.087       .  S
C733        C998   1.343   1_565  D
C733        H999   1.087       .  S
C734        C997   1.341   1_556  D
C734       H1000   1.087       .  S
H735        C997   1.087       .  S
H736        C998   1.087       .  S
C737       C1002   1.345       .  D
C737       H1003   1.087       .  S
C738       C1001   1.345   1_565  D
C738       H1004   1.087       .  S
H739       C1001   1.087   1_556  S
H740       C1002   1.087       .  S
C741        C742   1.342       .  D
C741        H743   1.087       .  S
C745        C746   1.341       .  D
C745        H747   1.087       .  S
C746        H748   1.087       .  S
C749        C750   1.342       .  D
C749        H751   1.087       .  S
C750        H752   1.087       .  S
C753       C1018   1.349       .  D
C753       H1019   1.086       .  S
C754       C1017   1.344       .  D
C754       H1020   1.086       .  S
H755       C1017   1.087       .  S
H756       C1018   1.087       .  S
C757        C758   1.346       .  D
C757       H1023   1.087       .  S
C758        C834   1.477       .  S
C758        H760   1.087       .  S
H759       C1021   1.086   1_545  S
C761        C762   1.345       .  D
C762        H764   1.087       .  S
C765        C766   1.345       .  D
C765        H767   1.086       .  S
C766        H768   1.087       .  S
C769        C770   1.341       .  D
C769        H771   1.087       .  S
C770        H772   1.087       .  S
C773        C774   1.341       .  D
C773        H775   1.087       .  S
C777        C778   1.341       .  D
C777        H779   1.087       .  S
C778        C805   1.472       .  S
C781        C782   1.345       .  D
C781        H783   1.087       .  S
C782        H784   1.087       .  S
C785        C786   1.344       .  D
C785        H787   1.087       .  S
C786        H788   1.086       .  S
C789        C790   1.341   1_545  D
C790        C806   1.471       .  S
C790       H1056   1.087       .  S
H792       C1054   1.087       .  S
O793        C803   1.266       .  A
O794        C804   1.260       .  A
O795        C805   1.262   1_565  A
O795        V801   1.896       .  S
O796        C806   1.262       .  A
O796        V801   1.895       .  S
O797        V802   1.899       .  S
O798        V802   1.897       .  S
O799        C804   1.267       .  A
O800        C803   1.262       .  A
C803       C1045   1.470       .  S
C804       C1050   1.470       .  S
O807        C817   1.266       .  A
O807        V815   1.899       .  S
O808        C818   1.266       .  A
O809        C819   1.266       .  A
O809        V815   1.902       .  S
O810        C820   1.264       .  A
O810        V815   1.903       .  S
O811        V816   1.901       .  S
O812        V816   1.903       .  S
O813        C818   1.265       .  A
O813        V816   1.900       .  S
O814        C817   1.262       .  A
C817       C1034   1.472       .  S
C818       C1029   1.483       .  S
C819       C1038   1.476       .  S
C820       C1025   1.479       .  S
O821        C831   1.264       .  A
O821        V829   1.901       .  S
O822        C832   1.266       .  A
O823        C833   1.264       .  A
O823        V829   1.902       .  S
O824        C834   1.265       .  A
O824        V829   1.905       .  S
O825        V830   1.910       .  S
O826        V830   1.910       .  S
O827        C832   1.261       .  A
O827        V830   1.892       .  S
O828        C831   1.266       .  A
C831       C1030   1.480       .  S
C832       C1033   1.470       .  S
C833       C1017   1.479       .  S
O835        C845   1.266       .  A
O835        V843   1.899       .  S
O836        C846   1.264       .  A
O836        V843   1.902       .  S
O837        C847   1.263       .  A
O837        V843   1.901       .  S
O838        C848   1.265       .  A
O838        V843   1.898       .  S
O839        C848   1.263       .  A
O839        V844   1.901       .  S
O840        C847   1.265       .  A
O840        V844   1.899       .  S
O841        C846   1.264       .  A
O841        V844   1.894       .  S
O842        C845   1.262       .  A
O842        V844   1.896       .  S
V843        V844   2.087       .  T
C845       C1049   1.472       .  S
C846       C1046   1.474       .  S
C847       C1009   1.473       .  S
C848       C1013   1.472       .  S
O850        V857   1.892       .  S
O851        C861   1.267       .  A
O851        V857   1.908       .  S
O852        C862   1.267       .  A
O852        V857   1.907   1_554  S
O853        V858   1.895       .  S
O854        V858   1.894   1_556  S
O855        C860   1.266   1_565  A
O856        C859   1.267   1_565  A
O856        V858   1.908       .  S
C859        C998   1.478       .  S
C860       C1001   1.481       .  S
C861       C1006   1.471       .  S
C862       C1053   1.472       .  S
O863        C873   1.266       .  A
O863        V871   1.912   1_556  S
O864        C874   1.267       .  A
O864        V871   1.909       .  S
O865        C875   1.263       .  A
O865        V871   1.896       .  S
O866        C876   1.264       .  A
O867        C876   1.264       .  A
O867        V872   1.901       .  S
O868        C875   1.265   1_556  A
O869        V872   1.894       .  S
O870        V872   1.895   1_556  S
C873        C993   1.472       .  S
C874       C1037   1.474       .  S
C875        C989   1.470       .  S
C876        C985   1.470       .  S
O877        V885   1.899       .  S
O878        V885   1.903       .  S
O879        C889   1.267       .  A
O879        V885   1.912   1_556  S
O880        C890   1.267       .  A
O880        V885   1.912       .  S
O881        V886   1.900   1_554  S
O882        V886   1.897       .  S
O883        C888   1.265       .  A
O883        V886   1.903       .  S
O884        C887   1.266   1_554  A
O884        V886   1.903   1_554  S
C887        C997   1.471   1_556  S
C888       C1002   1.472       .  S
C889        C982   1.484       .  S
C890       C1021   1.479       .  S
O891        C901   1.262       .  A
O891        V899   1.894       .  S
O892        C902   1.265       .  A
O892        V899   1.897       .  S
O893        C903   1.265       .  A
O893        V899   1.899       .  S
O894        C904   1.263       .  A
O894        V899   1.899   1_556  S
O895        C904   1.265       .  A
O895        V900   1.900   1_556  S
O896        C903   1.264       .  A
O896        V900   1.900       .  S
O897        C902   1.263       .  A
O897        V900   1.898       .  S
O898        C901   1.264       .  A
O898        V900   1.897       .  S
V899        V900   2.087       .  T
C901        C986   1.468       .  S
C902        C990   1.471       .  S
C903       C1014   1.473       .  S
C904        C977   1.471       .  S
O905        C915   1.265       .  A
O906        C916   1.268       .  A
O906        V913   1.907       .  S
O907        C917   1.262       .  A
O907        V913   1.899       .  S
O908        C918   1.264       .  A
O908        V913   1.897       .  S
O909        V914   1.908       .  S
O910        V914   1.906       .  S
O912        V914   1.887       .  S
C915        C970   1.478       .  S
C916        C973   1.476       .  S
C917       C1005   1.473       .  S
C918       C1041   1.470       .  S
O919        V927   1.896       .  S
O920        V927   1.900       .  S
O921        C931   1.264   1_655  A
O921        V927   1.895       .  S
O922        C932   1.262       .  A
O922        V927   1.895       .  S
O923        V928   1.917       .  S
O924        V928   1.919       .  S
O925        C930   1.260       .  A
O925        V928   1.888       .  S
O926        C929   1.261       .  A
O926        V928   1.889       .  S
C929        C969   1.472       .  S
C930        C974   1.474       .  S
C931        C994   1.473       .  S
O933        V941   1.900       .  S
O934        V941   1.901       .  S
O935        C945   1.263       .  A
O935        V941   1.898       .  S
O936        C946   1.267       .  A
O937        C946   1.261       .  A
O937        V942   1.892       .  S
O938        C945   1.264       .  A
O939        C944   1.268       .  A
O939        V942   1.913       .  S
O940        C943   1.268       .  A
O940        V942   1.917       .  S
C943        C981   1.479       .  S
C944       C1018   1.482       .  S
C945        C966   1.471       .  S
C946        C962   1.472       .  S
O947        C957   1.261       .  A
O947        V955   1.894       .  S
O948        C958   1.264       .  A
O948        V955   1.893       .  S
O949        C959   1.267       .  A
O949        V955   1.908       .  S
O950        C960   1.266       .  A
O950        V955   1.905       .  S
O951        C960   1.261       .  A
O951        V956   1.894       .  S
O952        C959   1.261       .  A
O952        V956   1.892       .  S
O953        C958   1.265       .  A
O953        V956   1.904       .  S
O954        C957   1.267       .  A
O954        V956   1.903       .  S
V955        V956   2.086       .  T
C957        C961   1.472       .  S
C958        C965   1.473       .  S
C959       C1010   1.470       .  S
C960        C978   1.468       .  S
C961        C962   1.340       .  D
C961        H963   1.087       .  S
C962        H964   1.087       .  S
C965        C966   1.344       .  D
C965        H967   1.087       .  S
C966        H968   1.087       .  S
C969        C970   1.342       .  D
C970        H972   1.086       .  S
C973        C974   1.339       .  D
C974        H976   1.087       .  S
C977        C978   1.339       .  D
C977        H979   1.087       .  S
C978        H980   1.087       .  S
C981        C982   1.345       .  D
C981        H983   1.087   1_565  S
C985        C986   1.342       .  D
C985        H987   1.087       .  S
C986        H988   1.087       .  S
C989        C990   1.342       .  D
C989        H991   1.087       .  S
C990        H992   1.087       .  S
C1005      C1006   1.340       .  D
C1005      H1007   1.087       .  S
C1009      C1010   1.340       .  D
C1009      H1011   1.087       .  S
C1010      H1012   1.087       .  S
C1013      C1014   1.343       .  D
C1013      H1015   1.087       .  S
C1014      H1016   1.087       .  S
C1021      C1022   1.346       .  D
C1022      H1024   1.087       .  S
C1025      C1026   1.341       .  D
C1026      H1028   1.087       .  S
C1029      C1030   1.347       .  D
C1029      H1031   1.086       .  S
C1030      H1032   1.087       .  S
C1033      C1034   1.341       .  D
C1033      H1035   1.087       .  S
C1034      H1036   1.087       .  S
C1037      C1038   1.341       .  D
C1037      H1039   1.087       .  S
C1041      C1042   1.343       .  D
C1041      H1043   1.087       .  S
C1045      C1046   1.343       .  D
C1045      H1047   1.087       .  S
C1046      H1048   1.087       .  S
C1049      C1050   1.340       .  D
C1049      H1051   1.087       .  S
C1050      H1052   1.087       .  S
C1053      C1054   1.340       .  D
