geometry optimzed in LAMMPS
_audit_creation_date              2020-11-30 
_audit_creation_method            'lammps2cif' 
_symmetry_space_group_name_H-M    'P1' 
_symmetry_Int_Tables_number       1 
_symmetry_cell_setting            triclinic 
loop_ 
_symmetry_equiv_pos_as_xyz 
  x,y,z 
_cell_length_a                    38.56343587 
_cell_length_b                    39.019543252103475 
_cell_length_c                    43.218900214187116 
_cell_angle_alpha                 89.98316483358144 
_cell_angle_beta                  90.06427631171037 
_cell_angle_gamma                 119.50336428727051 
loop_ 
_atom_site_label 
_atom_site_type_symbol 
_atom_site_fract_x 
_atom_site_fract_y 
_atom_site_fract_z 
_atom_site_charge 
O1          O  0.21175105  0.45972738  0.03258067    -0.71800
O2          O  0.22694514  0.02881344  0.96888633    -0.72000
O3          O  0.20914367  0.45567502  0.97065686    -0.71900
O4          O  0.23334677  0.03245631  0.03067864    -0.71900
O5          O  0.28769717  0.02876705  0.03178704    -0.71800
O6          O  0.26735298  0.46007245  0.96668224    -0.71900
O7          O  0.28565585  0.03398837  0.96991989    -0.71800
O8          O  0.26640091  0.45686743  0.02873867    -0.72000
V9          V  0.23073233  0.49719339  0.99958072     1.35200
V10         V  0.26624386  0.99184669  0.99819539     1.35200
C11         C  0.23294787  0.44499311  0.04140104     0.77400
C12         C  0.26261917  0.04545803  0.95931215     0.77500
C13         C  0.23120366  0.44415545  0.95828026     0.77400
C14         C  0.26747438  0.04398629  0.04198403     0.77300
C15         C  0.14937748  0.31782584  0.80469486     0.80200
N16         N  0.17078559  0.33844882  0.82979371    -0.78100
C17         C  0.15213370  0.34082235  0.85574688     0.82600
N18         N  0.11155732  0.32205205  0.85643992    -0.78100
C19         C  0.08977793  0.30163129  0.83146922     0.82700
N20         N  0.10898704  0.29964710  0.80588593    -0.79800
C21         C  0.33608200  0.17911001  0.80916979     0.80200
N22         N  0.31561598  0.15769343  0.83427681    -0.78100
C23         C  0.33533783  0.15681088  0.86015638     0.82600
N24         N  0.37590021  0.17788933  0.86068205    -0.78100
C25         C  0.39668234  0.19931286  0.83580008     0.82700
N26         N  0.37653791  0.19953486  0.81018024    -0.79500
O27         O  0.46247663  0.19415751  0.30189399    -0.71800
O28         O  0.04708683  0.26213183  0.36758867    -0.72000
O29         O  0.46290881  0.19344188  0.36405319    -0.71900
O30         O  0.05353727  0.26064013  0.30601104    -0.71900
O31         O  0.04620347  0.31164310  0.29794992    -0.71800
O32         O  0.46423503  0.24945624  0.36867191    -0.71900
O33         O  0.04906232  0.31798799  0.35997346    -0.71800
O34         O  0.45459041  0.24524758  0.30706691    -0.72000
V35         V  0.50257722  0.21603955  0.33342916     1.35200
V36         V  0.00772535  0.29302228  0.33059534     1.35200
C37         C  0.44390583  0.21226882  0.29460946     0.77400
C38         C  0.06139449  0.29811510  0.37470777     0.77500
C39         C  0.45071271  0.21419605  0.37755157     0.77400
C40         C  0.06409272  0.29257237  0.29184361     0.77300
C41         C  0.32903906  0.17378889  0.19613052     0.80200
N42         N  0.30990287  0.19521021  0.19589521    -0.78100
C43         C  0.28705256  0.19385522  0.17153862     0.82600
N44         N  0.28335212  0.17044084  0.14714738    -0.78100
C45         C  0.30207586  0.14862309  0.14668103     0.82700
N46         N  0.32504288  0.15053961  0.17132730    -0.79800
C47         C  0.17822515  0.32008238  0.19579964     0.80200
N48         N  0.19561275  0.29707917  0.19627102    -0.78100
C49         C  0.21607738  0.29515910  0.17150847     0.82600
N50         N  0.21898854  0.31644794  0.14590552    -0.78100
C51         C  0.20213993  0.33989558  0.14486868     0.82700
N52         N  0.18156766  0.34141245  0.16993640    -0.79800
O53         O  0.23353168  0.20200020  0.69587554    -0.71800
O54         O  0.20630901  0.24833832  0.62877313    -0.72000
O55         O  0.23857033  0.20148772  0.63404409    -0.71900
O56         O  0.20035109  0.24828622  0.69064678    -0.71900
O57         O  0.26025870  0.29712311  0.69722859    -0.71800
O58         O  0.29560768  0.25537228  0.63199097    -0.71900
O59         O  0.26272789  0.30212484  0.63520601    -0.71800
O60         O  0.29400689  0.25112108  0.69388882    -0.72000
V61         V  0.22072797  0.22597222  0.66238801     1.35200
V62         V  0.27711228  0.27554154  0.66455532     1.35200
C63         C  0.26924122  0.21835845  0.70538943     0.77400
C64         C  0.22985484  0.28375319  0.62117273     0.77500
C65         C  0.27308914  0.22042641  0.62271534     0.77400
C66         C  0.22362799  0.27998953  0.70434643     0.77300
C67         C  0.30589658  0.14143176  0.52317036     0.80200
N68         N  0.33127848  0.16014612  0.49925049    -0.78100
C69         C  0.33415806  0.13906405  0.47519818     0.82600
N70         N  0.31103569  0.09924278  0.47523153    -0.78100
C71         C  0.28590816  0.08030047  0.49888078     0.82700
N72         N  0.28374631  0.10147808  0.52281098    -0.79800
C73         C  0.20459886  0.36995685  0.52261782     0.80200
N74         N  0.22632200  0.41001786  0.52213620    -0.78100
C75         C  0.22272372  0.43103572  0.49852863     0.82600
N76         N  0.19694206  0.41138449  0.47524188    -0.78100
C77         C  0.17496810  0.37147671  0.47506032     0.82700
N78         N  0.17895589  0.35085606  0.49888099    -0.79800
C79         C  0.26313441  0.03689563  0.49958272    -0.05500
C80         C  0.26091442  0.01718415  0.52722246    -0.32900
C81         C  0.26740897  0.49749736  0.52398412     0.36300
C82         C  0.24551920  0.47499073  0.49812055    -0.05800
C83         C  0.24437901  0.49511279  0.47139037    -0.32800
C84         C  0.24462001  0.01482149  0.47286968     0.36200
H85         H  0.27521692  0.03381348  0.54795589     0.16600
O86         O  0.27050056  0.47980857  0.55041336    -0.60300
H87         H  0.22828397  0.47896754  0.45099367     0.16600
O88         O  0.24560596  0.03321709  0.44556930    -0.60400
H89         H  0.22152440  0.03622969  0.44591713     0.43600
H90         H  0.29578900  0.47918081  0.54816889     0.43600
C91         C  0.28558282  0.20139207  0.59904089    -0.05500
C92         C  0.31322243  0.22365903  0.57600475    -0.32900
C93         C  0.32103946  0.20501222  0.55127450     0.36300
C94         C  0.30137470  0.16339596  0.54962813    -0.05800
C95         C  0.27534673  0.14159017  0.57373375    -0.32800
C96         C  0.26751083  0.16004170  0.59809975     0.36200
H97         H  0.32761658  0.25551178  0.57648582     0.16600
O98         O  0.34754207  0.22780182  0.52886239    -0.60300
H99         H  0.26019199  0.10971069  0.57370773     0.16600
O100        O  0.24142012  0.13706241  0.62070097    -0.60400
H101        H  0.25834364  0.13534157  0.63724347     0.43600
H102        H  0.33196439  0.23477975  0.51443904     0.43600
C103        C  0.20900351  0.34734093  0.54872966    -0.05500
C104        C  0.19306093  0.30624050  0.54630363    -0.32900
C105        C  0.19831234  0.28466735  0.57009893     0.36300
C106        C  0.22011838  0.30414776  0.59674458    -0.05800
C107        C  0.23531893  0.34484028  0.59947003    -0.32800
C108        C  0.22961877  0.36629310  0.57612790     0.36200
H109        H  0.17717896  0.29076382  0.52562931     0.16600
O110        O  0.18423084  0.24511100  0.56618275    -0.60300
H111        H  0.25189153  0.36030047  0.61995140     0.16600
O112        O  0.24483669  0.40592067  0.58047133    -0.60400
H113        H  0.22374043  0.40844231  0.59163326     0.43600
H114        H  0.15655952  0.23213664  0.57420852     0.43600
C115        C  0.26768861  0.21887397  0.17132476    -0.05500
C116        C  0.26694806  0.23817085  0.19864844    -0.32900
C117        C  0.25027983  0.26297199  0.19908851     0.36300
C118        C  0.23389744  0.26910567  0.17189534    -0.05800
C119        C  0.23450525  0.24994590  0.14461535    -0.32800
C120        C  0.25090140  0.22491958  0.14414423     0.36200
H121        H  0.27951771  0.23425068  0.21989181     0.16600
O122        O  0.25089168  0.28161454  0.22614957    -0.60300
H123        H  0.22179844  0.25405492  0.12350546     0.16600
O124        O  0.25018160  0.20660703  0.11688779    -0.60400
H125        H  0.27460574  0.22558845  0.10568946     0.43600
H126        H  0.27532976  0.30775690  0.22503109     0.43600
C127        C  0.42084352  0.19643133  0.40254175    -0.05500
C128        C  0.39936840  0.15527131  0.40470267    -0.32900
C129        C  0.37097190  0.13643172  0.42770692     0.36300
C130        C  0.36341917  0.15873045  0.44977803    -0.05800
C131        C  0.38502713  0.20013436  0.44768926    -0.32800
C132        C  0.41360897  0.21898985  0.42437522     0.36200
H133        H  0.40441865  0.13719359  0.38828999     0.16600
O134        O  0.35177937  0.09606671  0.42871675    -0.60300
H135        H  0.38005906  0.21806575  0.46428092     0.16600
O136        O  0.43459258  0.25933969  0.42349556    -0.60400
H137        H  0.45831766  0.26689684  0.43672461     0.43600
H138        H  0.32960648  0.08723159  0.41362033     0.43600
C139        C  0.41108596  0.19658277  0.27166376    -0.05500
C140        C  0.41199121  0.17519655  0.24586132    -0.32900
C141        C  0.38468554  0.16608849  0.22143387     0.36300
C142        C  0.35548641  0.17800616  0.22279138    -0.05800
C143        C  0.35316335  0.19697903  0.24974584    -0.32800
C144        C  0.38042277  0.20617936  0.27389921     0.36200
H145        H  0.43522119  0.16735970  0.24382888     0.16600
O146        O  0.38792142  0.14687623  0.19599622    -0.60300
H147        H  0.33063392  0.20574000  0.25197096     0.16600
O148        O  0.37740178  0.22557480  0.29934100    -0.60400
H149        H  0.35873234  0.20454055  0.31347143     0.43600
H150        H  0.40714936  0.16796396  0.18216120     0.43600
C151        C  0.15329448  0.31922368  0.22236694    -0.05500
C152        C  0.12644014  0.33372171  0.21906461    -0.32900
C153        C  0.09828075  0.32732359  0.24219671     0.36300
C154        C  0.09674607  0.30616119  0.26904468    -0.05800
C155        C  0.12542018  0.29443063  0.27326548    -0.32800
C156        C  0.15365644  0.30110095  0.25057426     0.36200
H157        H  0.12589974  0.34839441  0.19793801     0.16600
O158        O  0.07129015  0.34008527  0.23759519    -0.60300
H159        H  0.12540180  0.27900499  0.29413406     0.16600
O160        O  0.18048087  0.28832926  0.25599509    -0.60400
H161        H  0.20451330  0.31158355  0.26433955     0.43600
H162        H  0.04865608  0.31828629  0.22646531     0.43600
C163        C  0.09133539  0.31672810  0.39982198    -0.05500
C164        C  0.10165425  0.29377709  0.41874984    -0.32900
C165        C  0.12885612  0.31082238  0.44325697     0.36300
C166        C  0.14622291  0.35157186  0.44933371    -0.05800
C167        C  0.13608371  0.37437075  0.43012066    -0.32800
C168        C  0.10931768  0.35755049  0.40565399     0.36200
H169        H  0.08841712  0.26241096  0.41471869     0.16600
O170        O  0.13804131  0.28726431  0.46102345    -0.60300
H171        H  0.14873000  0.40569035  0.43408203     0.16600
O172        O  0.10067689  0.38153004  0.38788852    -0.60400
H173        H  0.12126117  0.39180318  0.37143563     0.43600
H174        H  0.16118561  0.28770026  0.45062417     0.43600
C175        C  0.28280222  0.20085812  0.72952072    -0.05500
C176        C  0.25886151  0.18180439  0.75526727    -0.32900
C177        C  0.27491028  0.17249479  0.78106333     0.36300
C178        C  0.31537965  0.18198614  0.78105499    -0.05800
C179        C  0.33787511  0.19779075  0.75399890    -0.32800
C180        C  0.32199800  0.20716194  0.72853292     0.36200
H181        H  0.22848589  0.17635754  0.75620797     0.16600
O182        O  0.25124849  0.15582504  0.80648390    -0.60300
H183        H  0.36859292  0.20431394  0.75281029     0.16600
O184        O  0.34575532  0.22404173  0.70315579    -0.60400
H185        H  0.33751689  0.20235676  0.68795363     0.43600
H186        H  0.25404544  0.17831013  0.81906957     0.43600
C187        C  0.04550018  0.28033543  0.83240168    -0.05500
C188        C  0.02560135  0.26618175  0.86068862    -0.32900
C189        C  0.46293746  0.23834786  0.86315403     0.36300
C190        C  0.44089358  0.22142063  0.83593588    -0.05800
C191        C  0.46149385  0.22612600  0.80810976    -0.32800
C192        C  0.02263245  0.27284011  0.80515642     0.36200
H193        H  0.04245331  0.27155705  0.88193343     0.16600
O194        O  0.44404461  0.23524450  0.89073130    -0.60300
H195        H  0.44520341  0.21340469  0.78688337     0.16600
O196        O  0.04053290  0.28690664  0.77706138    -0.60400
H197        H  0.04455836  0.31400773  0.77571389     0.43600
H198        H  0.43863855  0.25760238  0.89090378     0.43600
C199        C  0.20715689  0.29527962  0.72811540    -0.05500
C200        C  0.16634562  0.28297314  0.72693587    -0.32900
C201        C  0.14755388  0.29143923  0.75087563     0.36300
C202        C  0.16957681  0.31282183  0.77706901    -0.05800
C203        C  0.21108114  0.32731654  0.77734237    -0.32800
C204        C  0.22990453  0.31886839  0.75306038     0.36200
H205        H  0.14840024  0.26560804  0.70758161     0.16600
O206        O  0.10745226  0.27810366  0.74833300    -0.60300
H207        H  0.22893677  0.34413878  0.79689533     0.16600
O208        O  0.26991351  0.33158799  0.75502597    -0.60400
H209        H  0.28313475  0.35821818  0.74561066     0.43600
H210        H  0.09430877  0.25009930  0.75482331     0.43600
C211        C  0.22035110  0.41508882  0.06612897    -0.05500
C212        C  0.23725085  0.39047082  0.06682244    -0.32900
C213        C  0.23075533  0.36519633  0.09165181     0.36300
C214        C  0.20687848  0.36410651  0.11687325    -0.05800
C215        C  0.18847684  0.38760229  0.11548175    -0.32800
C216        C  0.19478098  0.41267671  0.09026237     0.36200
H217        H  0.25646232  0.39134327  0.04818904     0.16600
O218        O  0.24838770  0.34207285  0.09091152    -0.60300
H219        H  0.16971227  0.38722481  0.13425482     0.16600
O220        O  0.17774096  0.43632387  0.09040728    -0.60400
H221        H  0.15091578  0.42002465  0.08129839     0.43600
H222        H  0.27591038  0.35911931  0.09870749     0.43600
C223        C  0.29723608  0.12358126  0.11906915    -0.05500
C224        C  0.27640090  0.12618730  0.09325669    -0.32900
C225        C  0.26874228  0.10195838  0.06752742     0.36300
C226        C  0.28174323  0.07396847  0.06685302    -0.05800
C227        C  0.30434269  0.07238800  0.09173373    -0.32800
C228        C  0.31189259  0.09668613  0.11783110     0.36200
H229        H  0.26522204  0.14676997  0.09297001     0.16600
O230        O  0.24751210  0.10531729  0.04334128    -0.60300
H231        H  0.31450066  0.05097705  0.09164254     0.16600
O232        O  0.33281356  0.09313008  0.14210376    -0.60400
H233        H  0.31250143  0.07208973  0.15537697     0.43600
H234        H  0.26779908  0.12200721  0.02783560     0.43600
C235        C  0.21428938  0.41350673  0.93414271    -0.05500
C236        C  0.23503478  0.41794361  0.90648843    -0.32900
C237        C  0.21592005  0.39351058  0.88099582     0.36300
C238        C  0.17536465  0.36402275  0.88306332    -0.05800
C239        C  0.15588017  0.35791647  0.91166183    -0.32800
C240        C  0.17489442  0.38238824  0.93692657     0.36200
H241        H  0.26533019  0.44187850  0.90400002     0.16600
O242        O  0.23639741  0.40067932  0.85368120    -0.60300
H243        H  0.12525964  0.33474993  0.91433643     0.16600
O244        O  0.15463700  0.37579999  0.96434278    -0.60400
H245        H  0.13649501  0.38676557  0.96137813     0.43600
H246        H  0.25120779  0.38594835  0.85525848     0.43600
C247        C  0.27814686  0.07754500  0.93633045    -0.05500
C248        C  0.25530920  0.07600038  0.91056736    -0.32900
C249        C  0.27275125  0.10261010  0.88594691     0.36300
C250        C  0.31361959  0.13155977  0.88713558    -0.05800
C251        C  0.33518564  0.13471246  0.91424250    -0.32800
C252        C  0.31785729  0.10819138  0.93856238     0.36200
H253        H  0.22456085  0.05281870  0.90871082     0.16600
O254        O  0.24982155  0.09907910  0.86058748    -0.60300
H255        H  0.36618341  0.15715604  0.91640496     0.16600
O256        O  0.34053244  0.11178215  0.96413750    -0.60400
H257        H  0.33380837  0.12651420  0.97946950     0.43600
H258        H  0.25104205  0.07899186  0.84728457     0.43600
O259        O  0.19598095  0.95382228  0.03471215    -0.71800
O260        O  0.24829348  0.53499125  0.96671651    -0.72000
O261        O  0.18823236  0.94979884  0.97283577    -0.71900
O262        O  0.24970853  0.53850144  0.02855370    -0.71900
O263        O  0.30448258  0.53587429  0.03234543    -0.71800
O264        O  0.24598488  0.95474904  0.96461931    -0.71900
O265        O  0.30632097  0.53906407  0.97040252    -0.71800
O266        O  0.24948984  0.94997495  0.02648626    -0.72000
V267        V  0.21210541  0.99117362  0.00167328     1.35200
V268        V  0.28510232  0.49791974  0.99952537     1.35200
C269        C  0.21757050  0.93869159  0.04135700     0.77400
C270        C  0.28444971  0.55104593  0.95832231     0.77500
C271        C  0.20911178  0.93862320  0.95813566     0.77400
C272        C  0.28347934  0.55096490  0.04085180     0.77300
C273        C  0.12926757  0.79943832  0.80929166     0.80200
N274        N  0.14967122  0.82335879  0.83342117    -0.78100
C275        C  0.12993126  0.82827201  0.85758509     0.82600
N276        N  0.08935138  0.80894963  0.85725502    -0.78100
C277        C  0.06849100  0.78522902  0.83328578     0.82700
N278        N  0.08878954  0.78071154  0.80949800    -0.79800
C279        C  0.35430252  0.69270666  0.81158933     0.80200
N280        N  0.33520940  0.66878289  0.83602634    -0.78100
C281        C  0.35627007  0.66642545  0.86044203     0.82600
N282        N  0.39673573  0.68833364  0.86008004    -0.78100
C283        C  0.41627359  0.71234873  0.83597462     0.82700
N284        N  0.39477398  0.71416633  0.81181311    -0.79500
O285        O  0.47405363  0.71837563  0.30066251    -0.71800
O286        O  0.04273872  0.73557033  0.36479163    -0.72000
O287        O  0.46773398  0.71926962  0.36238154    -0.71900
O288        O  0.04281038  0.73619210  0.30277569    -0.71900
O289        O  0.03524604  0.78768385  0.29910329    -0.71800
O290        O  0.46908317  0.77558411  0.36378217    -0.71900
O291        O  0.04429584  0.79177243  0.36078526    -0.71800
O292        O  0.46554333  0.76941330  0.30183291    -0.72000
V293        V  0.51067120  0.74127096  0.33420782     1.35200
V294        V  0.00011185  0.76799472  0.33380518     1.35200
C295        C  0.45609144  0.73597723  0.29075245     0.77400
C296        C  0.05797517  0.77138342  0.37279527     0.77500
C297        C  0.45450907  0.74052730  0.37342862     0.77400
C298        C  0.05216390  0.76869921  0.29005836     0.77300
C299        C  0.34276306  0.68808378  0.19055465     0.80200
N300        N  0.32066465  0.70648522  0.19004629    -0.78100
C301        C  0.29699465  0.70266437  0.16565975     0.82600
N302        N  0.29521393  0.67976065  0.14152505    -0.78100
C303        C  0.31678295  0.66074279  0.14140738     0.82700
N304        N  0.34072186  0.66512859  0.16607138    -0.79800
C305        C  0.16503615  0.80515226  0.19142746     0.80200
N306        N  0.18533666  0.78490120  0.19133382    -0.78100
C307        C  0.20882810  0.78749641  0.16714682     0.82600
N308        N  0.21173818  0.81055601  0.14273193    -0.78100
C309        C  0.19167047  0.83101901  0.14219672     0.82700
N310        N  0.16818576  0.82808628  0.16669301    -0.79800
O311        O  0.23995442  0.70216039  0.70140872    -0.71800
O312        O  0.19970378  0.73782947  0.63536554    -0.72000
O313        O  0.24440396  0.70277307  0.63935242    -0.71900
O314        O  0.19444746  0.73631352  0.69731973    -0.71900
O315        O  0.24963120  0.79119116  0.70384235    -0.71800
O316        O  0.29464493  0.76213000  0.63653063    -0.71900
O317        O  0.24950581  0.79687472  0.64204902    -0.71800
O318        O  0.29572589  0.75737656  0.69863867    -0.72000
V319        V  0.22056208  0.72078611  0.66839429     1.35200
V320        V  0.27150307  0.77590134  0.67025410     1.35200
C321        C  0.27552701  0.72364044  0.71049810     0.77400
C322        C  0.21751636  0.77401215  0.62820532     0.77500
C323        C  0.27727925  0.72671241  0.62716217     0.77400
C324        C  0.21349366  0.76880366  0.71128199     0.77300
C325        C  0.31780173  0.66104550  0.52233136     0.80200
N326        N  0.33865221  0.68184518  0.49701652    -0.78100
C327        C  0.34169469  0.66280968  0.47155751     0.82600
N328        N  0.32372837  0.62285887  0.47174815    -0.78100
C329        C  0.30313589  0.60184974  0.49675497     0.82700
N330        N  0.30048795  0.62108123  0.52193554    -0.79800
C331        C  0.18422436  0.84946522  0.52711709     0.80200
N332        N  0.20290901  0.88945149  0.52700563    -0.78100
C333        C  0.20206160  0.90956977  0.50166344     0.82600
N334        N  0.18220756  0.88898858  0.47609201    -0.78100
C335        C  0.16338704  0.84894298  0.47557001     0.82700
N336        N  0.16461149  0.82943041  0.50124543    -0.79800
C337        C  0.28395639  0.55841073  0.49670472    -0.05500
C338        C  0.28571613  0.53868784  0.52326671    -0.32900
C339        C  0.24163463  0.97602867  0.52833049     0.36300
C340        C  0.22294191  0.95351118  0.50155278    -0.05800
C341        C  0.22462094  0.97360971  0.47400520    -0.32800
C342        C  0.26347040  0.53627189  0.47049886     0.36200
H343        H  0.30176943  0.55534048  0.54351954     0.16600
O344        O  0.24127413  0.95841524  0.55585478    -0.60300
H345        H  0.21063514  0.95744375  0.45305348     0.16600
O346        O  0.26098925  0.55447333  0.44409845    -0.60400
H347        H  0.23768370  0.55835389  0.44726775     0.43600
H348        H  0.26670595  0.95783294  0.55631831     0.43600
C349        C  0.29356339  0.71263248  0.60226388    -0.05500
C350        C  0.31371511  0.73664722  0.57684164    -0.32900
C351        C  0.32307117  0.72097645  0.55083857     0.36300
C352        C  0.31259739  0.68071968  0.55020095    -0.05800
C353        C  0.29466523  0.65772081  0.57664058    -0.32800
C354        C  0.28528818  0.67323061  0.60230271     0.36200
H355        H  0.32045850  0.76707918  0.57645122     0.16600
O356        O  0.34146737  0.74508329  0.52604616    -0.60300
H357        H  0.28694088  0.62702386  0.57740915     0.16600
O358        O  0.26702245  0.64911156  0.62714583    -0.60400
H359        H  0.28900654  0.65342671  0.64138876     0.43600
H360        H  0.31959078  0.74438805  0.51347939     0.43600
C361        C  0.18726390  0.82808603  0.55454238    -0.05500
C362        C  0.18026924  0.78927836  0.55127101    -0.32900
C363        C  0.18764993  0.77018862  0.57576997     0.36300
C364        C  0.20262248  0.79001203  0.60396326    -0.05800
C365        C  0.20754800  0.82781644  0.60786610    -0.32800
C366        C  0.19945553  0.84662480  0.58371353     0.36200
H367        H  0.17073887  0.77420261  0.52925654     0.16600
O368        O  0.18344352  0.73359018  0.57101158    -0.60300
H369        H  0.21852209  0.84322038  0.62964647     0.16600
O370        O  0.20458776  0.88351256  0.58883143    -0.60400
H371        H  0.17773458  0.87923484  0.59417140     0.43600
H372        H  0.15545536  0.71479651  0.57664713     0.43600
C373        C  0.27363906  0.72352874  0.16559516    -0.05500
C374        C  0.26268910  0.73312995  0.19389447    -0.32900
C375        C  0.24151953  0.75367497  0.19481932     0.36300
C376        C  0.23083996  0.76522318  0.16707139    -0.05800
C377        C  0.24183908  0.75564031  0.13874355    -0.32800
C378        C  0.26291418  0.73495641  0.13782619     0.36200
H379        H  0.27054778  0.72465558  0.21554001     0.16600
O380        O  0.23204719  0.76274801  0.22307414    -0.60300
H381        H  0.23397935  0.76409297  0.11709521     0.16600
O382        O  0.27333763  0.72667783  0.10962077    -0.60400
H383        H  0.30034273  0.74898890  0.10535082     0.43600
H384        H  0.25469840  0.78899510  0.22841724     0.43600
C385        C  0.42264088  0.72378166  0.39682217    -0.05500
C386        C  0.39200002  0.68492335  0.39295948    -0.32900
C387        C  0.36387767  0.66572193  0.41618064     0.36300
C388        C  0.36669817  0.68497244  0.44457867    -0.05800
C389        C  0.39615484  0.72480613  0.44769882    -0.32800
C390        C  0.42404757  0.74420505  0.42404443     0.36200
H391        H  0.39023005  0.66903380  0.37190541     0.16600
O392        O  0.33450790  0.62764933  0.41105379    -0.60300
H393        H  0.39889147  0.74044271  0.46906902     0.16600
O394        O  0.45383487  0.78225495  0.42851162    -0.60400
H395        H  0.47557282  0.78004792  0.43898055     0.43600
H396        H  0.31257655  0.62984123  0.40095196     0.43600
C397        C  0.42468188  0.71855612  0.26691872    -0.05500
C398        C  0.42888381  0.69882461  0.24128032    -0.32900
C399        C  0.40180405  0.68727347  0.21647246     0.36300
C400        C  0.36956035  0.69488834  0.21743937    -0.05800
C401        C  0.36422976  0.71223890  0.24424433    -0.32800
C402        C  0.39134214  0.72404855  0.26865751     0.36200
H403        H  0.45429141  0.69414866  0.23975445     0.16600
O404        O  0.40808728  0.66995433  0.19110568    -0.60300
H405        H  0.33934593  0.71768234  0.24615201     0.16600
O406        O  0.38534408  0.74173099  0.29395622    -0.60400
H407        H  0.37122749  0.72023013  0.30918304     0.43600
H408        H  0.42629844  0.69211608  0.17759855     0.43600
C409        C  0.13865489  0.80082040  0.21785947    -0.05500
C410        C  0.10621520  0.80754389  0.21388706    -0.32900
C411        C  0.07839557  0.79896210  0.23773158     0.36300
C412        C  0.08296385  0.78355457  0.26590411    -0.05800
C413        C  0.11627482  0.77876846  0.27036566    -0.32800
C414        C  0.14419749  0.78772162  0.24694210     0.36200
H415        H  0.10141791  0.81784992  0.19187709     0.16600
O416        O  0.04594945  0.80381255  0.23271032    -0.60300
H417        H  0.12043169  0.76745875  0.29214570     0.16600
O418        O  0.17644698  0.78282958  0.25273901    -0.60400
H419        H  0.19801560  0.80917594  0.25916849     0.43600
H420        H  0.02477333  0.77797069  0.22494594     0.43600
C421        C  0.08994180  0.78952909  0.39633289    -0.05500
C422        C  0.09165002  0.76722431  0.42115853    -0.32900
C423        C  0.11680812  0.78567832  0.44656262     0.36300
C424        C  0.14058505  0.82724800  0.44749278    -0.05800
C425        C  0.14107191  0.84888799  0.42131387    -0.32800
C426        C  0.11637522  0.83045206  0.39596769     0.36200
H427        H  0.07195299  0.73564641  0.42166244     0.16600
O428        O  0.11620146  0.76281658  0.47087701    -0.60300
H429        H  0.15984577  0.88059227  0.42066849     0.16600
O430        O  0.11740142  0.85308922  0.37131164    -0.60400
H431        H  0.13475793  0.85026421  0.35578084     0.43600
H432        H  0.13794706  0.75685762  0.46652288     0.43600
C433        C  0.29370770  0.71074450  0.73462145    -0.05500
C434        C  0.27172283  0.68999892  0.76067729    -0.32900
C435        C  0.29055139  0.68303067  0.78581835     0.36300
C436        C  0.33193803  0.69625254  0.78480436    -0.05800
C437        C  0.35312675  0.71509533  0.75781895    -0.32800
C438        C  0.33447665  0.72239662  0.73305357     0.36200
H439        H  0.24032527  0.68094174  0.76223656     0.16600
O440        O  0.26837656  0.66450873  0.81150648    -0.60300
H441        H  0.38468111  0.72501223  0.75595386     0.16600
O442        O  0.35672213  0.74178409  0.70757589    -0.60400
H443        H  0.35108312  0.72087694  0.69213032     0.43600
H444        H  0.27011172  0.68595167  0.82488745     0.43600
C445        C  0.02404849  0.76385592  0.83349254    -0.05500
C446        C  0.00347721  0.75927455  0.86144325    -0.32900
C447        C  0.48360412  0.74430314  0.86288119     0.36300
C448        C  0.46059443  0.73586612  0.83557156    -0.05800
C449        C  0.48043497  0.75038290  0.80727924    -0.32800
C450        C  0.00159233  0.74762432  0.80621041     0.36200
H451        H  0.01978006  0.77147659  0.88274119     0.16600
O452        O  0.46583365  0.73136898  0.89117425    -0.60300
H453        H  0.46367489  0.74458428  0.78594620     0.16600
O454        O  0.01986156  0.75152311  0.77820974    -0.60400
H455        H  0.02314402  0.77638691  0.76929923     0.43600
H456        H  0.46130106  0.75269152  0.89908684     0.43600
C457        C  0.19293696  0.77907549  0.73558998    -0.05500
C458        C  0.15156190  0.75496532  0.73891056    -0.32900
C459        C  0.13062010  0.76139299  0.76236328     0.36300
C460        C  0.15079891  0.79286722  0.78337844    -0.05800
C461        C  0.19218884  0.81760008  0.77974671    -0.32800
C462        C  0.21318350  0.81107408  0.75602747     0.36200
H463        H  0.13504163  0.73033543  0.72342026     0.16600
O464        O  0.09040724  0.73607201  0.76460550    -0.60300
H465        H  0.20850053  0.84207380  0.79540115     0.16600
O466        O  0.25355990  0.83539207  0.75375607    -0.60400
H467        H  0.25689839  0.85764018  0.74059352     0.43600
H468        H  0.08773542  0.71414978  0.77785806     0.43600
C469        C  0.20716703  0.90907470  0.06607440    -0.05500
C470        C  0.22283039  0.88343700  0.06449027    -0.32900
C471        C  0.21761835  0.85764763  0.08866697     0.36300
C472        C  0.19608658  0.85684760  0.11539605    -0.05800
C473        C  0.17959544  0.88201063  0.11663090    -0.32800
C474        C  0.18493680  0.90789851  0.09224290     0.36200
H475        H  0.23985167  0.88371155  0.04445601     0.16600
O476        O  0.23366922  0.83330602  0.08561328    -0.60300
H477        H  0.16320259  0.88236420  0.13684552     0.16600
O478        O  0.17045834  0.93355850  0.09512326    -0.60400
H479        H  0.14232408  0.91852956  0.08829806     0.43600
H480        H  0.26198931  0.84947255  0.09195621     0.43600
C481        C  0.31278667  0.63500711  0.11457808    -0.05500
C482        C  0.28969992  0.63435814  0.08913348    -0.32900
C483        C  0.28175006  0.60847251  0.06455337     0.36300
C484        C  0.29680931  0.58210312  0.06471191    -0.05800
C485        C  0.32186130  0.58402682  0.08904562    -0.32800
C486        C  0.32971583  0.61001958  0.11399424     0.36200
H487        H  0.27683509  0.65353561  0.08831664     0.16600
O488        O  0.25833499  0.60870252  0.04070564    -0.60300
H489        H  0.33393526  0.56415743  0.08943871     0.16600
O490        O  0.35324535  0.61003052  0.13779760    -0.60400
H491        H  0.33482098  0.58912699  0.15213182     0.43600
H492        H  0.27728829  0.62579437  0.02458821     0.43600
C493        C  0.18995059  0.90791724  0.93382774    -0.05500
C494        C  0.21255145  0.90385959  0.91010656    -0.32900
C495        C  0.19389830  0.87750346  0.88544108     0.36300
C496        C  0.15179870  0.85466926  0.88412473    -0.05800
C497        C  0.12964121  0.85763142  0.90871624    -0.32800
C498        C  0.14811015  0.88374879  0.93316118     0.36200
H499        H  0.24470301  0.92194782  0.91017642     0.16600
O500        O  0.21719428  0.87536935  0.86242189    -0.60300
H501        H  0.09745195  0.84000744  0.90901032     0.16600
O502        O  0.12472023  0.88493483  0.95658738    -0.60400
H503        H  0.11314978  0.90087593  0.94841132     0.43600
H504        H  0.22340756  0.85470512  0.86925522     0.43600
C505        C  0.30167860  0.58300934  0.93503598    -0.05500
C506        C  0.27738035  0.58802857  0.91338655    -0.32900
C507        C  0.29426532  0.61573113  0.88936044     0.36300
C508        C  0.33619211  0.63905851  0.88679166    -0.05800
C509        C  0.36002828  0.63530472  0.90966817    -0.32800
C510        C  0.34328844  0.60803999  0.93355217     0.36200
H511        H  0.24529111  0.56967999  0.91450438     0.16600
O512        O  0.26943121  0.61971185  0.86875146    -0.60300
H513        H  0.39217942  0.65316238  0.90898418     0.16600
O514        O  0.36823194  0.60590505  0.95518207    -0.60400
H515        H  0.36977816  0.62374705  0.97212993     0.43600
H516        H  0.26157224  0.59792212  0.85370605     0.43600
O517        O  0.69651979  0.45434285  0.03496279    -0.71800
O518        O  0.74828807  0.03535248  0.96575798    -0.72000
O519        O  0.68898300  0.45020534  0.97308676    -0.71900
O520        O  0.74937627  0.03952441  0.02764518    -0.71900
O521        O  0.80375515  0.03626837  0.03205099    -0.71800
O522        O  0.74705783  0.45577002  0.96514736    -0.71900
O523        O  0.80610683  0.03911443  0.97004614    -0.71800
O524        O  0.75060311  0.45147252  0.02705596    -0.72000
V525        V  0.71235042  0.49166666  0.00191219     1.35200
V526        V  0.78444374  0.99820554  0.99933284     1.35200
C527        C  0.71852837  0.43974362  0.04181356     0.77400
C528        C  0.78447626  0.05105896  0.95748323     0.77500
C529        C  0.71018692  0.43924142  0.95859886     0.77400
C530        C  0.78290271  0.05162669  0.04028836     0.77300
C531        C  0.63065515  0.29961771  0.81006133     0.80200
N532        N  0.65112531  0.32356777  0.83415055    -0.78100
C533        C  0.63140414  0.32826091  0.85844762     0.82600
N534        N  0.59079559  0.30872128  0.85825918    -0.78100
C535        C  0.56991608  0.28500123  0.83428159     0.82700
N536        N  0.59020757  0.28071164  0.81040418    -0.79800
C537        C  0.85474589  0.19272602  0.81042453     0.80200
N538        N  0.83562964  0.16840356  0.83466827    -0.78100
C539        C  0.85668261  0.16578931  0.85898122     0.82600
N540        N  0.89713528  0.18785664  0.85872560    -0.78100
C541        C  0.91669302  0.21226649  0.83482648     0.82700
N542        N  0.89521629  0.21433030  0.81074613    -0.79500
O543        O  0.97385645  0.21852867  0.30021952    -0.71800
O544        O  0.54267232  0.23637062  0.36494834    -0.72000
O545        O  0.96732474  0.21954778  0.36190855    -0.71900
O546        O  0.54258490  0.23652686  0.30295120    -0.71900
O547        O  0.53394695  0.28735076  0.29889778    -0.71800
O548        O  0.96940297  0.27621192  0.36319188    -0.71900
O549        O  0.54349593  0.29219793  0.36056172    -0.71800
O550        O  0.96602213  0.26996633  0.30126057    -0.72000
V551        V  0.01042028  0.24117009  0.33385551     1.35200
V552        V  0.49913943  0.26762329  0.33378040     1.35200
C553        C  0.95618763  0.23640373  0.29025491     0.77400
C554        C  0.55747287  0.27218186  0.37279167     0.77500
C555        C  0.95447931  0.24115124  0.37288701     0.77400
C556        C  0.55134640  0.26876258  0.29001556     0.77300
C557        C  0.84179143  0.18793835  0.19056658     0.80200
N558        N  0.81928852  0.20593121  0.19020535    -0.78100
C559        C  0.79528414  0.20173969  0.16596140     0.82600
N560        N  0.79359758  0.17891407  0.14181975    -0.78100
C561        C  0.81555866  0.16032288  0.14152523     0.82700
N562        N  0.83982660  0.16504638  0.16604556    -0.79800
C563        C  0.66418167  0.30522229  0.19154823     0.80200
N564        N  0.68388871  0.28439868  0.19146477    -0.78100
C565        C  0.70743062  0.28681511  0.16738347     0.82600
N566        N  0.71103996  0.31031207  0.14309807    -0.78100
C567        C  0.69165373  0.33143507  0.14259342     0.82700
N568        N  0.66801591  0.32860141  0.16695367    -0.79800
O569        O  0.74053597  0.20343603  0.70082379    -0.71800
O570        O  0.70026122  0.23917580  0.63490796    -0.72000
O571        O  0.74506329  0.20424189  0.63881973    -0.71900
O572        O  0.69500685  0.23753339  0.69685472    -0.71900
O573        O  0.75010905  0.29247979  0.70338059    -0.71800
O574        O  0.79532877  0.26359790  0.63613884    -0.71900
O575        O  0.75003291  0.29825060  0.64158367    -0.71800
O576        O  0.79626278  0.25872109  0.69821073    -0.72000
V577        V  0.72115306  0.22212851  0.66787810     1.35200
V578        V  0.77205569  0.27727848  0.66980845     1.35200
C579        C  0.77608237  0.22490320  0.70995291     0.77400
C580        C  0.71801696  0.27535772  0.62777779     0.77500
C581        C  0.77803341  0.22818659  0.62676802     0.77400
C582        C  0.71402465  0.26997930  0.71088280     0.77300
C583        C  0.81901740  0.16256626  0.52228326     0.80200
N584        N  0.83965005  0.18338499  0.49692005    -0.78100
C585        C  0.84230366  0.16437790  0.47130649     0.82600
N586        N  0.82417000  0.12441781  0.47135528    -0.78100
C587        C  0.80383702  0.10340424  0.49644311     0.82700
N588        N  0.80156753  0.12259668  0.52179054    -0.79800
C589        C  0.68279250  0.35045140  0.52755850     0.80200
N590        N  0.70134303  0.39043985  0.52753236    -0.78100
C591        C  0.70020622  0.41053167  0.50226460     0.82600
N592        N  0.68024405  0.38996183  0.47673695    -0.78100
C593        C  0.66156936  0.34995013  0.47615300     0.82700
N594        N  0.66307521  0.33043224  0.50171691    -0.79800
C595        C  0.78451781  0.06000380  0.49630242    -0.05500
C596        C  0.78798296  0.04029948  0.52221329    -0.32900
C597        C  0.73938109  0.47706854  0.52882419     0.36300
C598        C  0.72130136  0.45443998  0.50198518    -0.05800
C599        C  0.72397220  0.47437368  0.47412697    -0.32800
C600        C  0.76225044  0.03791168  0.47066515     0.36200
H601        H  0.80545179  0.05697002  0.54198595     0.16600
O602        O  0.73775732  0.45954662  0.55668224    -0.60300
H603        H  0.71044788  0.45809336  0.45311866     0.16600
O604        O  0.75816159  0.05619180  0.44491845    -0.60400
H605        H  0.73516124  0.06015847  0.44939544     0.43600
H606        H  0.76315448  0.45898414  0.55812699     0.43600
C607        C  0.79453982  0.21409147  0.60206320    -0.05500
C608        C  0.81542494  0.23827208  0.57692049    -0.32900
C609        C  0.82500204  0.22263445  0.55102154     0.36300
C610        C  0.81394454  0.18222776  0.55020334    -0.05800
C611        C  0.79541908  0.15907461  0.57644826    -0.32800
C612        C  0.78587708  0.17456478  0.60202136     0.36200
H613        H  0.82259218  0.26883145  0.57664514     0.16600
O614        O  0.84423791  0.24694543  0.52651360    -0.60300
H615        H  0.78729058  0.12826569  0.57710247     0.16600
O616        O  0.76703211  0.15029388  0.62666867    -0.60400
H617        H  0.78860703  0.15505455  0.64150055     0.43600
H618        H  0.82286805  0.24705622  0.51379418     0.43600
C619        C  0.68638341  0.32906396  0.55472005    -0.05500
C620        C  0.68085297  0.29084889  0.55092790    -0.32900
C621        C  0.68885394  0.27190371  0.57517324     0.36300
C622        C  0.70290257  0.29125921  0.60365187    -0.05800
C623        C  0.70648069  0.32845855  0.60804073    -0.32800
C624        C  0.69780553  0.34712320  0.58410314     0.36200
H625        H  0.67204832  0.27621319  0.52869778     0.16600
O626        O  0.68621057  0.23603822  0.56991513    -0.60300
H627        H  0.71678235  0.34347300  0.63004001     0.16600
O628        O  0.70156190  0.38339917  0.58962703    -0.60400
H629        H  0.67438290  0.37807323  0.59510389     0.43600
H630        H  0.65831669  0.21634225  0.57503505     0.43600
C631        C  0.77166292  0.22232544  0.16592186    -0.05500
C632        C  0.76080596  0.23202832  0.19421710    -0.32900
C633        C  0.73962892  0.25257319  0.19511837     0.36300
C634        C  0.72894696  0.26408139  0.16735225    -0.05800
C635        C  0.73966199  0.25421202  0.13903561    -0.32800
C636        C  0.76066397  0.23346793  0.13813626     0.36200
H637        H  0.76880272  0.22369445  0.21586612     0.16600
O638        O  0.73022719  0.26176420  0.22335631    -0.60300
H639        H  0.73170521  0.26256666  0.11738270     0.16600
O640        O  0.77080685  0.22491358  0.10992248    -0.60400
H641        H  0.79774422  0.24720359  0.10543213     0.43600
H642        H  0.75305949  0.28787006  0.22876161     0.43600
C643        C  0.92276338  0.22490019  0.39636662    -0.05500
C644        C  0.89093691  0.18671936  0.39212522    -0.32900
C645        C  0.86295924  0.16777479  0.41549676     0.36300
C646        C  0.86712728  0.18658554  0.44432359    -0.05800
C647        C  0.89781694  0.22582990  0.44786093    -0.32800
C648        C  0.92560006  0.24496431  0.42411623     0.36200
H649        H  0.88816982  0.17113944  0.37068862     0.16600
O650        O  0.83239004  0.13033913  0.41010250    -0.60300
H651        H  0.90162914  0.24106499  0.46961912     0.16600
O652        O  0.95670793  0.28225733  0.42899195    -0.60400
H653        H  0.97804704  0.27852490  0.43851595     0.43600
H654        H  0.81060240  0.13381793  0.40119699     0.43600
C655        C  0.92459894  0.21912921  0.26651099    -0.05500
C656        C  0.92784764  0.19821164  0.24129498    -0.32900
C657        C  0.90052517  0.18650692  0.21662962     0.36300
C658        C  0.86897766  0.19518486  0.21730535    -0.05800
C659        C  0.86461265  0.21381759  0.24371622    -0.32800
C660        C  0.89193985  0.22573985  0.26798133     0.36200
H661        H  0.95266855  0.19260082  0.23999114     0.16600
O662        O  0.90579684  0.16778826  0.19173621    -0.60300
H663        H  0.84029522  0.22013146  0.24546084     0.16600
O664        O  0.88676496  0.24454514  0.29290047    -0.60400
H665        H  0.87209846  0.22353375  0.30838831     0.43600
H666        H  0.92448889  0.18920437  0.17787557     0.43600
C667        C  0.63781831  0.30111483  0.21788146    -0.05500
C668        C  0.60494174  0.30707205  0.21363271    -0.32900
C669        C  0.57706728  0.29841872  0.23744569     0.36300
C670        C  0.58210580  0.28380533  0.26585501    -0.05800
C671        C  0.61588152  0.27987235  0.27056869    -0.32800
C672        C  0.64379258  0.28881675  0.24715385     0.36200
H673        H  0.59983049  0.31671998  0.19143293     0.16600
O674        O  0.54411374  0.30233907  0.23217075    -0.60300
H675        H  0.62037348  0.26916117  0.29252239     0.16600
O676        O  0.67644709  0.28465440  0.25312180    -0.60400
H677        H  0.69782549  0.31131270  0.25908914     0.43600
H678        H  0.52335021  0.27619936  0.22456068     0.43600
C679        C  0.58909746  0.29056912  0.39652683    -0.05500
C680        C  0.59068004  0.26827949  0.42141239    -0.32900
C681        C  0.61542122  0.28674825  0.44699269     0.36300
C682        C  0.63895569  0.32832044  0.44802191    -0.05800
C683        C  0.63951715  0.35000653  0.42184180    -0.32800
C684        C  0.61518073  0.33154888  0.39632860     0.36200
H685        H  0.57117703  0.23666496  0.42181277     0.16600
O686        O  0.61463010  0.26388105  0.47136857    -0.60300
H687        H  0.65809754  0.38173841  0.42130168     0.16600
O688        O  0.61623401  0.35417991  0.37166166    -0.60400
H689        H  0.63455459  0.35228703  0.35652794     0.43600
H690        H  0.63637256  0.25788738  0.46714751     0.43600
C691        C  0.79424113  0.21181020  0.73393926    -0.05500
C692        C  0.77229158  0.19102497  0.75999305    -0.32900
C693        C  0.79108422  0.18368432  0.78495786     0.36300
C694        C  0.83239711  0.19659660  0.78377401    -0.05800
C695        C  0.85353440  0.21547653  0.75677745    -0.32800
C696        C  0.83490850  0.22311374  0.73217026     0.36200
H697        H  0.74095786  0.18219320  0.76168276     0.16600
O698        O  0.76896061  0.16510824  0.81065308    -0.60300
H699        H  0.88502072  0.22512871  0.75478360     0.16600
O700        O  0.85706093  0.24242226  0.70663397    -0.60400
H701        H  0.85092299  0.22152490  0.69105985     0.43600
H702        H  0.77094255  0.18653882  0.82417556     0.43600
C703        C  0.52546809  0.26345317  0.83442674    -0.05500
C704        C  0.50472614  0.25914239  0.86224320    -0.32900
C705        C  0.98388802  0.24414139  0.86195874     0.36300
C706        C  0.96101573  0.23597847  0.83459171    -0.05800
C707        C  0.98100277  0.25092300  0.80641478    -0.32800
C708        C  0.50316421  0.24673729  0.80714540     0.36200
H709        H  0.52089932  0.27169308  0.88352979     0.16600
O710        O  0.96597477  0.23071269  0.89014304    -0.60300
H711        H  0.96435248  0.24532393  0.78504339     0.16600
O712        O  0.52156226  0.25025217  0.77926242    -0.60400
H713        H  0.52446043  0.27474832  0.76989368     0.43600
H714        H  0.96158979  0.25197945  0.89840299     0.43600
C715        C  0.69357897  0.27996116  0.73547512    -0.05500
C716        C  0.65267999  0.25442877  0.74012843    -0.32900
C717        C  0.63202842  0.26056882  0.76395564     0.36300
C718        C  0.65198000  0.29319608  0.78396897    -0.05800
C719        C  0.69282931  0.31931021  0.77904470    -0.32800
C720        C  0.71354765  0.31307099  0.75494103     0.36200
H721        H  0.63635245  0.22886442  0.72546481     0.16600
O722        O  0.59237487  0.23379402  0.76763004    -0.60300
H723        H  0.70887500  0.34470235  0.79391637     0.16600
O724        O  0.75340916  0.33893177  0.75124684    -0.60400
H725        H  0.75472800  0.35997664  0.73759052     0.43600
H726        H  0.59167880  0.21306721  0.78132114     0.43600
C727        C  0.70842408  0.41022159  0.06662355    -0.05500
C728        C  0.72663550  0.38673675  0.06626136    -0.32900
C729        C  0.72127153  0.36092508  0.09044715     0.36300
C730        C  0.69688354  0.35777102  0.11594157    -0.05800
C731        C  0.67805705  0.38089867  0.11602180    -0.32800
C732        C  0.68358706  0.40685137  0.09163227     0.36200
H733        H  0.74575378  0.38869187  0.04718797     0.16600
O734        O  0.74016013  0.33900577  0.08864729    -0.60300
H735        H  0.65940858  0.37942773  0.13526598     0.16600
O736        O  0.66632779  0.43024521  0.09335629    -0.60400
H737        H  0.63922526  0.41408823  0.08467949     0.43600
H738        H  0.76734201  0.35627702  0.09698697     0.43600
C739        C  0.81173953  0.13484916  0.11456618    -0.05500
C740        C  0.78899959  0.13463348  0.08901730    -0.32900
C741        C  0.78117674  0.10900628  0.06427513     0.36300
C742        C  0.79608395  0.08251882  0.06434106    -0.05800
C743        C  0.82076341  0.08398427  0.08881872    -0.32800
C744        C  0.82843984  0.10967994  0.11394869     0.36200
H745        H  0.77630215  0.15395563  0.08824027     0.16600
O746        O  0.75799979  0.10958001  0.04037799    -0.60300
H747        H  0.83265096  0.06395961  0.08917973     0.16600
O748        O  0.85149120  0.10916381  0.13791600    -0.60400
H749        H  0.83269075  0.08833500  0.15212883     0.43600
H750        H  0.77710314  0.12662409  0.02433028     0.43600
C751        C  0.69136337  0.40825424  0.93448103    -0.05500
C752        C  0.71393596  0.40526793  0.91021656    -0.32900
C753        C  0.69534283  0.37876832  0.88562254     0.36300
C754        C  0.65333678  0.35468889  0.88495850    -0.05800
C755        C  0.63131517  0.35650259  0.91014761    -0.32800
C756        C  0.64973477  0.38279265  0.93451046     0.36200
H757        H  0.74594535  0.42437980  0.90976712     0.16600
O758        O  0.71853018  0.37782731  0.86197846    -0.60300
H759        H  0.59925644  0.33785060  0.91096337     0.16600
O760        O  0.62655540  0.38291226  0.95854318    -0.60400
H761        H  0.61364030  0.39784613  0.95084551     0.43600
H762        H  0.72619159  0.35803427  0.86838464     0.43600
C763        C  0.80200130  0.08251388  0.93374820    -0.05500
C764        C  0.77777123  0.08857660  0.91269618    -0.32900
C765        C  0.79471438  0.11606266  0.88851607     0.36300
C766        C  0.83663585  0.13813801  0.88518030    -0.05800
C767        C  0.86050824  0.13309695  0.90726078    -0.32800
C768        C  0.84375546  0.10607898  0.93129180     0.36200
H769        H  0.74563078  0.07133789  0.91448713     0.16600
O770        O  0.76996415  0.12124966  0.86862607    -0.60300
H771        H  0.89270078  0.14982864  0.90588054     0.16600
O772        O  0.86884723  0.10280349  0.95211942    -0.60400
H773        H  0.87183292  0.12098032  0.96926103     0.43600
H774        H  0.76066725  0.09926008  0.85359324     0.43600
O775        O  0.71091105  0.96081707  0.03218111    -0.71800
O776        O  0.72687326  0.52926142  0.96910730    -0.72000
O777        O  0.70862601  0.95606507  0.97026134    -0.71900
O778        O  0.73306484  0.53298395  0.03091913    -0.71900
O779        O  0.78791841  0.53021912  0.03202345    -0.71800
O780        O  0.76675441  0.96019237  0.96665643    -0.71900
O781        O  0.78583105  0.53503334  0.97014913    -0.71800
O782        O  0.76525710  0.95731735  0.02867030    -0.72000
V783        V  0.73029544  0.99791504  0.99892061     1.35200
V784        V  0.76686862  0.49308569  0.99858009     1.35200
C785        C  0.73180980  0.94584163  0.04120543     0.77400
C786        C  0.76255558  0.54619750  0.95952763     0.77500
C787        C  0.73066111  0.94433085  0.95814620     0.77400
C788        C  0.76729732  0.54500630  0.04219465     0.77300
C789        C  0.64877224  0.81725381  0.80498766     0.80200
N790        N  0.67032248  0.83789057  0.83004018    -0.78100
C791        C  0.65178539  0.84025650  0.85607512     0.82600
N792        N  0.61122562  0.82150608  0.85688870    -0.78100
C793        C  0.58932077  0.80109544  0.83197637     0.82700
N794        N  0.60839200  0.79910925  0.80631283    -0.79800
C795        C  0.83437918  0.67914822  0.80899331     0.80200
N796        N  0.81413821  0.65795399  0.83425401    -0.78100
C797        C  0.83411264  0.65743742  0.86010104     0.82600
N798        N  0.87467618  0.67864474  0.86041528    -0.78100
C799        C  0.89523163  0.69987228  0.83538540     0.82700
N800        N  0.87483870  0.69973349  0.80981605    -0.79500
O801        O  0.96261559  0.69482425  0.30150846    -0.71800
O802        O  0.54749007  0.76251016  0.36779595    -0.72000
O803        O  0.96278523  0.69351479  0.36369534    -0.71900
O804        O  0.55363132  0.76111433  0.30624348    -0.71900
O805        O  0.54569613  0.81178723  0.29833743    -0.71800
O806        O  0.96487658  0.74986205  0.36851350    -0.71900
O807        O  0.54877673  0.81808115  0.36033849    -0.71800
O808        O  0.95580929  0.74651564  0.30686421    -0.72000
V809        V  0.00266357  0.71594426  0.33317549     1.35200
V810        V  0.50733187  0.79279460  0.33108238     1.35200
C811        C  0.94465685  0.71355281  0.29422754     0.77400
C812        C  0.56160031  0.79847768  0.37486298     0.77500
C813        C  0.95083309  0.71446143  0.37721155     0.77400
C814        C  0.56385860  0.79300690  0.29212359     0.77300
C815        C  0.83001880  0.67648590  0.19548465     0.80200
N816        N  0.81075776  0.69780115  0.19524723    -0.78100
C817        C  0.78751005  0.69602781  0.17103066     0.82600
N818        N  0.78355278  0.67232343  0.14679239    -0.78100
C819        C  0.80238721  0.65061976  0.14632545     0.82700
N820        N  0.82573013  0.65293333  0.17082408    -0.79800
C821        C  0.67746171  0.82097577  0.19557795     0.80200
N822        N  0.69500307  0.79811692  0.19589255    -0.78100
C823        C  0.71534856  0.79627937  0.17102960     0.82600
N824        N  0.71798621  0.81750669  0.14545668    -0.78100
C825        C  0.70094628  0.84079985  0.14456236     0.82700
N826        N  0.68052574  0.84225959  0.16975376    -0.79800
O827        O  0.73236486  0.70203329  0.69519367    -0.71800
O828        O  0.70669475  0.74963386  0.62810014    -0.72000
O829        O  0.73838170  0.70233907  0.63339546    -0.71900
O830        O  0.69976986  0.74880157  0.68995380    -0.71900
O831        O  0.75967976  0.79735832  0.69711030    -0.71800
O832        O  0.79569299  0.75597734  0.63205477    -0.71900
O833        O  0.76326410  0.80305822  0.63508175    -0.71800
O834        O  0.79299133  0.75097123  0.69392126    -0.72000
V835        V  0.72034328  0.72665005  0.66172430     1.35200
V836        V  0.77685879  0.77595481  0.66451640     1.35200
C837        C  0.76790016  0.71809945  0.70506264     0.77400
C838        C  0.73062317  0.78502741  0.62069251     0.77500
C839        C  0.77310388  0.72122644  0.62242343     0.77400
C840        C  0.72296824  0.78026521  0.70397638     0.77300
C841        C  0.80569844  0.64244694  0.52266991     0.80200
N842        N  0.83096982  0.66103039  0.49865710    -0.78100
C843        C  0.83369272  0.63979350  0.47463394     0.82600
N844        N  0.81056005  0.59995995  0.47483271    -0.78100
C845        C  0.78552235  0.58117955  0.49857861     0.82700
N846        N  0.78350138  0.60251972  0.52241902    -0.79800
C847        C  0.70601314  0.87165370  0.52195684     0.80200
N848        N  0.72741843  0.91172209  0.52147904    -0.78100
C849        C  0.72341491  0.93263467  0.49798494     0.82600
N850        N  0.69751889  0.91285131  0.47478970    -0.78100
C851        C  0.67583936  0.87292066  0.47459835     0.82700
N852        N  0.68023301  0.85244043  0.49832867    -0.79800
C853        C  0.76248964  0.53778550  0.49947061    -0.05500
C854        C  0.75920787  0.51822997  0.52743043    -0.32900
C855        C  0.76966869  0.99911869  0.52282173     0.36300
C856        C  0.74600553  0.97660450  0.49758634    -0.05800
C857        C  0.74309295  0.99674523  0.47150038    -0.32800
C858        C  0.74444573  0.51555646  0.47272573     0.36200
H859        H  0.77302285  0.53496278  0.54823014     0.16600
O860        O  0.77472800  0.98146929  0.54849718    -0.60300
H861        H  0.72559641  0.98062876  0.45157999     0.16600
O862        O  0.74633553  0.53376547  0.44512788    -0.60400
H863        H  0.72233261  0.53691213  0.44477388     0.43600
H864        H  0.79959908  0.98052163  0.54461101     0.43600
C865        C  0.78571522  0.70232897  0.59874121    -0.05500
C866        C  0.81328951  0.72465275  0.57567854    -0.32900
C867        C  0.82101663  0.70604396  0.55086031     0.36300
C868        C  0.80132223  0.66443682  0.54916967    -0.05800
C869        C  0.77538742  0.64259617  0.57331869    -0.32800
C870        C  0.76765148  0.66099575  0.59775797     0.36200
H871        H  0.82766143  0.75650303  0.57619874     0.16600
O872        O  0.84744543  0.72884437  0.52841301    -0.60300
H873        H  0.76021131  0.61071644  0.57327904     0.16600
O874        O  0.74163206  0.63798005  0.62038462    -0.60400
H875        H  0.75862967  0.63650765  0.63698368     0.43600
H876        H  0.83185370  0.73593953  0.51410087     0.43600
C877        C  0.71082903  0.84912699  0.54796156    -0.05500
C878        C  0.69329328  0.80779421  0.54615775    -0.32900
C879        C  0.69839303  0.78614810  0.56997045     0.36300
C880        C  0.72160137  0.80574805  0.59605278    -0.05800
C881        C  0.73867385  0.84674086  0.59805634    -0.32800
C882        C  0.73323569  0.86830952  0.57467489     0.36200
H883        H  0.67609341  0.79210911  0.52599765     0.16600
O884        O  0.68256614  0.74625725  0.56662942    -0.60300
H885        H  0.75647881  0.86237715  0.61802811     0.16600
O886        O  0.75052278  0.90826726  0.57830083    -0.60400
H887        H  0.73093866  0.91241264  0.59024963     0.43600
H888        H  0.65516312  0.73455365  0.57506743     0.43600
C889        C  0.76785173  0.72078482  0.17081597    -0.05500
C890        C  0.76757011  0.74055014  0.19799392    -0.32900
C891        C  0.75058861  0.76507508  0.19842686     0.36300
C892        C  0.73345799  0.77048937  0.17136736    -0.05800
C893        C  0.73356561  0.75084424  0.14423172    -0.32800
C894        C  0.75023247  0.72604268  0.14377927     0.36200
H895        H  0.78073393  0.73720851  0.21912947     0.16600
O896        O  0.75162255  0.78416747  0.22534334    -0.60300
H897        H  0.72023605  0.75437731  0.12324542     0.16600
O898        O  0.74890200  0.70712780  0.11670135    -0.60400
H899        H  0.77283276  0.72602658  0.10495546     0.43600
H900        H  0.77601557  0.81030984  0.22386880     0.43600
C901        C  0.92063871  0.69678360  0.40201475    -0.05500
C902        C  0.89838063  0.65562202  0.40379991    -0.32900
C903        C  0.86977432  0.63690040  0.42670917     0.36300
C904        C  0.86285998  0.65931681  0.44910135    -0.05800
C905        C  0.88511966  0.70071530  0.44728359    -0.32800
C906        C  0.91385604  0.71944536  0.42404662     0.36200
H907        H  0.90299444  0.63746801  0.38717188     0.16600
O908        O  0.84972065  0.59650924  0.42728886    -0.60300
H909        H  0.88060881  0.71874755  0.46407352     0.16600
O910        O  0.93548207  0.75977789  0.42346526    -0.60400
H911        H  0.95889011  0.76677294  0.43692633     0.43600
H912        H  0.82750068  0.58842859  0.41233346     0.43600
C913        C  0.91201522  0.69862675  0.27109668    -0.05500
C914        C  0.91216735  0.67651083  0.24553412    -0.32900
C915        C  0.88500685  0.66781247  0.22104408     0.36300
C916        C  0.85666811  0.68087343  0.22207991    -0.05800
C917        C  0.85519039  0.70080348  0.24873197    -0.32800
C918        C  0.88229825  0.70958968  0.27294410     0.36200
H919        H  0.93466800  0.66765436  0.24376281     0.16600
O920        O  0.88745623  0.64769586  0.19590809    -0.60300
H921        H  0.83338291  0.71053536  0.25072254     0.16600
O922        O  0.88000708  0.72983874  0.29809340    -0.60400
H923        H  0.86091421  0.70933743  0.31237422     0.43600
H924        H  0.90717661  0.66820201  0.18194476     0.43600
C925        C  0.65271947  0.82003500  0.22230551    -0.05500
C926        C  0.62610371  0.83487457  0.21936948    -0.32900
C927        C  0.59807977  0.82840153  0.24264217     0.36300
C928        C  0.59645644  0.80682356  0.26925464    -0.05800
C929        C  0.62496423  0.79481180  0.27313792    -0.32800
C930        C  0.65302806  0.80151020  0.25031124     0.36200
H931        H  0.62563950  0.84988715  0.19841880     0.16600
O932        O  0.57132474  0.84153220  0.23840494    -0.60300
H933        H  0.62491319  0.77907747  0.29382772     0.16600
O934        O  0.67957161  0.78830147  0.25538218    -0.60400
H935        H  0.70370485  0.81126718  0.26392943     0.43600
H936        H  0.54853050  0.81997042  0.22722811     0.43600
C937        C  0.59190921  0.81737465  0.39966348    -0.05500
C938        C  0.60155487  0.79447317  0.41922537    -0.32900
C939        C  0.62892081  0.81178798  0.44358202     0.36300
C940        C  0.64711678  0.85278324  0.44888680    -0.05800
C941        C  0.63780186  0.87554895  0.42891307    -0.32800
C942        C  0.61091885  0.85843810  0.40455290     0.36200
H943        H  0.58758056  0.76292491  0.41585797     0.16600
O944        O  0.63734191  0.78821407  0.46201779    -0.60300
H945        H  0.65120961  0.90707040  0.43215845     0.16600
O946        O  0.60327380  0.88239867  0.38588883    -0.60400
H947        H  0.62347375  0.89099619  0.36919018     0.43600
H948        H  0.66028952  0.78787067  0.45196019     0.43600
C949        C  0.78097129  0.70015359  0.72916293    -0.05500
C950        C  0.75714207  0.68178970  0.75511691    -0.32900
C951        C  0.77316414  0.67258119  0.78099441     0.36300
C952        C  0.81346834  0.68152912  0.78084241    -0.05800
C953        C  0.83571263  0.69645320  0.75356612    -0.32800
C954        C  0.81986353  0.70569049  0.72802234     0.36200
H955        H  0.72697721  0.67692528  0.75616246     0.16600
O956        O  0.74972005  0.65665937  0.80663572    -0.60300
H957        H  0.86626284  0.70247170  0.75227514     0.16600
O958        O  0.84341838  0.72183421  0.70243170    -0.60400
H959        H  0.83505424  0.69970784  0.68763826     0.43600
H960        H  0.75298744  0.67952275  0.81895313     0.43600
C961        C  0.54505993  0.77989436  0.83304982    -0.05500
C962        C  0.52531084  0.76615308  0.86144446    -0.32900
C963        C  0.96170611  0.73861235  0.86250216     0.36300
C964        C  0.93946616  0.72206407  0.83529497    -0.05800
C965        C  0.95990624  0.72712552  0.80731069    -0.32800
C966        C  0.52205431  0.77216733  0.80585988     0.36200
H967        H  0.54226861  0.77174341  0.88265564     0.16600
O968        O  0.94303328  0.73521391  0.89023994    -0.60300
H969        H  0.94348716  0.71474102  0.78607476     0.16600
O970        O  0.53980254  0.78590563  0.77766727    -0.60400
H971        H  0.54391665  0.81302847  0.77615803     0.43600
H972        H  0.93755201  0.75751965  0.89070608     0.43600
C973        C  0.70633421  0.79522980  0.72791004    -0.05500
C974        C  0.66527661  0.78186249  0.72729122    -0.32900
C975        C  0.64650524  0.79005276  0.75140390     0.36300
C976        C  0.66879287  0.81228994  0.77721557    -0.05800
C977        C  0.71045484  0.82780028  0.77693180    -0.32800
C978        C  0.72925305  0.81960105  0.75247734     0.36200
H979        H  0.64712138  0.76385751  0.70826108     0.16600
O980        O  0.60615303  0.77554436  0.74941825    -0.60300
H981        H  0.72850841  0.84531976  0.79616119     0.16600
O982        O  0.76951841  0.83348739  0.75387948    -0.60400
H983        H  0.78178108  0.85976147  0.74389590     0.43600
H984        H  0.59392778  0.74780179  0.75646517     0.43600
C985        C  0.71886081  0.91599305  0.06593858    -0.05500
C986        C  0.73383065  0.88975999  0.06577407    -0.32900
C987        C  0.72732589  0.86445156  0.09057167     0.36300
C988        C  0.70540649  0.86498586  0.11661582    -0.05800
C989        C  0.68886271  0.89015866  0.11610725    -0.32800
C990        C  0.69520560  0.91530910  0.09093350     0.36200
H991        H  0.75156785  0.88939565  0.04646649     0.16600
O992        O  0.74292421  0.83959874  0.08894625    -0.60300
H993        H  0.67170140  0.89113907  0.13556637     0.16600
O994        O  0.68036858  0.94081298  0.09197544    -0.60400
H995        H  0.65283839  0.92561717  0.08387290     0.43600
H996        H  0.77118424  0.85572126  0.09545216     0.43600
C997        C  0.79718505  0.62520335  0.11889616    -0.05500
C998        C  0.77577940  0.62724675  0.09324533    -0.32900
C999        C  0.76789142  0.60271559  0.06767920     0.36300
C1000       C  0.78131638  0.57505657  0.06699217    -0.05800
C1001       C  0.80435965  0.57396401  0.09173436    -0.32800
C1002       C  0.81206154  0.59849182  0.11768987     0.36200
H1003       H  0.76435063  0.64762707  0.09295970     0.16600
O1004       O  0.74610486  0.60550723  0.04365622    -0.60300
H1005       H  0.81480274  0.55277425  0.09164342     0.16600
O1006       O  0.83337178  0.59534848  0.14185850    -0.60400
H1007       H  0.81329232  0.57441210  0.15533924     0.43600
H1008       H  0.76605350  0.62219578  0.02794949     0.43600
C1009       C  0.71385219  0.91351156  0.93416406    -0.05500
C1010       C  0.73453356  0.91799740  0.90646991    -0.32900
C1011       C  0.71548362  0.89333778  0.88108476     0.36300
C1012       C  0.67507533  0.86356129  0.88331843    -0.05800
C1013       C  0.65570237  0.85739582  0.91198149    -0.32800
C1014       C  0.67463979  0.88212901  0.93713077     0.36200
H1015       H  0.76469474  0.94214791  0.90385835     0.16600
O1016       O  0.73582068  0.90058629  0.85369570    -0.60300
H1017       H  0.62519915  0.83401598  0.91477424     0.16600
O1018       O  0.65448816  0.87555489  0.96459760    -0.60400
H1019       H  0.63616807  0.88631173  0.96163340     0.43600
H1020       H  0.75096323  0.88618536  0.85526270     0.43600
C1021       C  0.77783590  0.57828228  0.93652244    -0.05500
C1022       C  0.75463560  0.57686752  0.91104543    -0.32900
C1023       C  0.77176787  0.60348803  0.88638266     0.36300
C1024       C  0.81270117  0.63229920  0.88722452    -0.05800
C1025       C  0.83464136  0.63537053  0.91409036    -0.32800
C1026       C  0.81761794  0.60886443  0.93845851     0.36200
H1027       H  0.72381562  0.55379035  0.90943400     0.16600
O1028       O  0.74845025  0.60013619  0.86133067    -0.60300
H1029       H  0.86570344  0.65772277  0.91601435     0.16600
O1030       O  0.84066127  0.61241389  0.96378095    -0.60400
H1031       H  0.83442499  0.62742752  0.97919438     0.43600
H1032       H  0.74915756  0.57987493  0.84791093     0.43600
loop_ 
_geom_bond_atom_site_label_1 
_geom_bond_atom_site_label_2 
_geom_bond_distance 
_geom_bond_site_symmetry_2 
_ccdc_geom_bond_type 
O1            V9   1.912   1_554  S
O1           C11   1.267       .  A
O2          V267   1.914   1_546  S
O2           C12   1.268       .  A
O3            V9   1.884       .  S
O3           C13   1.261       .  A
O4          V267   1.881   1_545  S
O4           C14   1.260       .  A
O5           V10   1.921   1_544  S
O5           C14   1.270       .  A
O6          V268   1.915       .  S
O6           C13   1.268       .  A
O7           V10   1.883   1_545  S
O7           C12   1.261       .  A
O8          V268   1.882   1_554  S
O8           C11   1.261       .  A
V9          O260   1.915       .  S
V9          O262   1.881   1_556  S
V9          V268   2.083       .  T
V10         O264   1.923       .  S
V10         O266   1.882   1_556  S
V10         V267   2.081   1_556  T
C11         C211   1.477       .  S
C12         C247   1.475       .  S
C13         C235   1.475       .  S
C14         C226   1.481       .  S
C15         C202   1.491       .  S
C15          N16   1.360       .  A
C15          N20   1.358       .  A
N16          C17   1.361       .  A
C17         C238   1.488       .  S
C17          N18   1.363       .  A
N18          C19   1.358       .  A
C19         C187   1.487       .  S
C19          N20   1.355       .  A
C21         C178   1.487       .  S
C21          N22   1.360       .  A
C21          N26   1.359       .  A
N22          C23   1.362       .  A
C23         C250   1.490       .  S
C23          N24   1.363       .  A
N24          C25   1.356       .  A
C25         C190   1.484       .  S
C25          N26   1.354       .  A
O27          V35   1.917       .  S
O27          C37   1.269       .  A
O28         V551   1.911       .  S
O28          C38   1.268       .  A
O29          V35   1.883       .  S
O29          C39   1.262       .  A
O30         V551   1.884       .  S
O30          C40   1.262       .  A
O31          V36   1.914       .  S
O31          C40   1.267       .  A
O32         V552   1.911       .  S
O32          C39   1.267       .  A
O33          V36   1.889       .  S
O33          C38   1.263       .  A
O34         V552   1.888       .  S
O34          C37   1.262       .  A
V35         O544   1.914       .  S
V35         O546   1.882       .  S
V35         V552   2.081       .  T
V36         O548   1.910   1_455  S
V36         O550   1.891   1_455  S
V36         V551   2.081       .  T
C37         C139   1.481       .  S
C38         C163   1.487       .  S
C39         C127   1.480       .  S
C40         C154   1.477       .  S
C41         C142   1.492       .  S
C41          N42   1.360       .  A
C41          N46   1.363       .  A
N42          C43   1.356       .  A
C43         C115   1.493       .  S
C43          N44   1.356       .  A
N44          C45   1.361       .  A
C45         C223   1.495       .  S
C45          N46   1.363       .  A
C47         C151   1.488       .  S
C47          N48   1.360       .  A
C47          N52   1.361       .  A
N48          C49   1.354       .  A
C49         C118   1.481       .  S
C49          N50   1.355       .  A
N50          C51   1.359       .  A
C51         C214   1.490       .  S
C51          N52   1.362       .  A
O53          V61   1.915       .  S
O53          C63   1.267       .  A
O54          V61   1.912       .  S
O54          C64   1.267       .  A
O55          V61   1.881       .  S
O55          C65   1.261       .  A
O56          V61   1.883       .  S
O56          C66   1.262       .  A
O57          V62   1.915       .  S
O57          C66   1.268       .  A
O58          V62   1.914       .  S
O58          C65   1.268       .  A
O59          V62   1.886       .  S
O59          C64   1.262       .  A
O60          V62   1.884       .  S
O60          C63   1.262       .  A
V61          V62   2.082       .  T
C63         C175   1.476       .  S
C64         C106   1.477       .  S
C65          C91   1.478       .  S
C66         C199   1.480       .  S
C67          C94   1.490       .  S
C67          N68   1.363       .  A
C67          N72   1.360       .  A
N68          C69   1.364       .  A
C69         C130   1.489       .  S
C69          N70   1.358       .  A
N70          C71   1.351       .  A
C71          C79   1.475       .  S
C71          N72   1.352       .  A
C73         C103   1.493       .  S
C73          N74   1.362       .  A
C73          N78   1.363       .  A
N74          C75   1.358       .  A
C75          C82   1.493       .  S
C75          N76   1.355       .  A
N76          C77   1.358       .  A
C77         C166   1.489       .  S
C77          N78   1.361       .  A
C79          C80   1.400       .  A
C79          C84   1.406       .  A
C80         C339   1.399   1_545  A
C80          H85   1.084       .  S
C81          C82   1.415       .  A
C81         C338   1.402       .  A
C81          O86   1.370       .  S
C82          C83   1.409       .  A
C83         C342   1.399       .  A
C83          H87   1.083       .  S
C84         C341   1.401   1_545  A
C84          O88   1.372       .  S
O86          H90   0.992       .  S
O88          H89   0.992       .  S
C91          C92   1.404       .  A
C91          C96   1.408       .  A
C92          C93   1.407       .  A
C92          H97   1.083       .  S
C93          C94   1.416       .  A
C93          O98   1.371       .  S
C94          C95   1.406       .  A
C95          C96   1.391       .  A
C95          H99   1.083       .  S
C96         O100   1.372       .  S
O98         H102   0.992       .  S
O100        H101   0.992       .  S
C103        C104   1.411       .  A
C103        C108   1.414       .  A
C104        C105   1.405       .  A
C104        H109   1.083       .  S
C105        C106   1.407       .  A
C105        O110   1.371       .  S
C106        C107   1.401       .  A
C107        C108   1.395       .  A
C107        H111   1.084       .  S
C108        O112   1.370       .  S
O110        H114   0.992       .  S
O112        H113   0.992       .  S
C115        C116   1.409       .  A
C115        C120   1.415       .  A
C116        C117   1.401       .  A
C116        H121   1.083       .  S
C117        C118   1.409       .  A
C117        O122   1.372       .  S
C118        C119   1.403       .  A
C119        C120   1.401       .  A
C119        H123   1.084       .  S
C120        O124   1.371       .  S
O122        H126   0.992       .  S
O124        H125   0.992       .  S
C127        C128   1.401       .  A
C127        C132   1.409       .  A
C128        C129   1.392       .  A
C128        H133   1.084       .  S
C129        C130   1.415       .  A
C129        O134   1.372       .  S
C130        C131   1.409       .  A
C131        C132   1.405       .  A
C131        H135   1.083       .  S
C132        O136   1.371       .  S
O134        H138   0.992       .  S
O136        H137   0.992       .  S
C139        C140   1.404       .  A
C139        C144   1.409       .  A
C140        C141   1.407       .  A
C140        H145   1.083       .  S
C141        C142   1.415       .  A
C141        O146   1.371       .  S
C142        C143   1.407       .  A
C143        C144   1.396       .  A
C143        H147   1.083       .  S
C144        O148   1.372       .  S
O146        H150   0.992       .  S
O148        H149   0.992       .  S
C151        C152   1.410       .  A
C151        C156   1.413       .  A
C152        C153   1.406       .  A
C152        H157   1.083       .  S
C153        C154   1.408       .  A
C153        O158   1.371       .  S
C154        C155   1.401       .  A
C155        C156   1.392       .  A
C155        H159   1.084       .  S
C156        O160   1.371       .  S
O158        H162   0.992       .  S
O160        H161   0.992       .  S
C163        C164   1.407       .  A
C163        C168   1.412       .  A
C164        C165   1.405       .  A
C164        H169   1.083       .  S
C165        C166   1.413       .  A
C165        O170   1.371       .  S
C166        C167   1.405       .  A
C167        C168   1.395       .  A
C167        H171   1.083       .  S
C168        O172   1.372       .  S
O170        H174   0.992       .  S
O172        H173   0.992       .  S
C175        C176   1.403       .  A
C175        C180   1.407       .  A
C176        C177   1.406       .  A
C176        H181   1.083       .  S
C177        C178   1.415       .  A
C177        O182   1.371       .  S
C178        C179   1.405       .  A
C179        C180   1.392       .  A
C179        H183   1.083       .  S
C180        O184   1.372       .  S
O182        H186   0.992       .  S
O184        H185   0.992       .  S
C187        C188   1.405       .  A
C187        C192   1.412       .  A
C188        C705   1.403   1_455  A
C188        H193   1.083       .  S
C189        C190   1.410       .  A
C189        C704   1.403       .  A
C189        O194   1.371       .  S
C190        C191   1.403       .  A
C191        C708   1.399       .  A
C191        H195   1.084       .  S
C192        C707   1.400   1_455  A
C192        O196   1.371       .  S
O194        H198   0.992       .  S
O196        H197   0.992       .  S
C199        C200   1.402       .  A
C199        C204   1.408       .  A
C200        C201   1.394       .  A
C200        H205   1.084       .  S
C201        C202   1.414       .  A
C201        O206   1.372       .  S
C202        C203   1.411       .  A
C203        C204   1.405       .  A
C203        H207   1.083       .  S
C204        O208   1.371       .  S
O206        H210   0.992       .  S
O208        H209   0.992       .  S
C211        C212   1.402       .  A
C211        C216   1.407       .  A
C212        C213   1.394       .  A
C212        H217   1.084       .  S
C213        C214   1.415       .  A
C213        O218   1.372       .  S
C214        C215   1.410       .  A
C215        C216   1.404       .  A
C215        H219   1.083       .  S
C216        O220   1.371       .  S
O218        H222   0.993       .  S
O220        H221   0.990       .  S
C223        C224   1.407       .  A
C223        C228   1.417       .  A
C224        C225   1.394       .  A
C224        H229   1.083       .  S
C225        C226   1.409       .  A
C225        O230   1.373       .  S
C226        C227   1.404       .  A
C227        C228   1.408       .  A
C227        H231   1.083       .  S
C228        O232   1.371       .  S
O230        H234   0.992       .  S
O232        H233   0.992       .  S
C235        C236   1.401       .  A
C235        C240   1.407       .  A
C236        C237   1.405       .  A
C236        H241   1.084       .  S
C237        C238   1.416       .  A
C237        O242   1.371       .  S
C238        C239   1.405       .  A
C239        C240   1.397       .  A
C239        H243   1.083       .  S
C240        O244   1.373       .  S
O242        H246   0.992       .  S
O244        H245   0.992       .  S
C247        C248   1.402       .  A
C247        C252   1.407       .  A
C248        C249   1.406       .  A
C248        H253   1.084       .  S
C249        C250   1.417       .  A
C249        O254   1.371       .  S
C250        C251   1.406       .  A
C251        C252   1.394       .  A
C251        H255   1.083       .  S
C252        O256   1.372       .  S
O254        H258   0.992       .  S
O256        H257   0.992       .  S
O259        V267   1.913       .  S
O259        C269   1.268       .  A
O260        C270   1.268       .  A
O261        V267   1.882   1_556  S
O261        C271   1.261       .  A
O262        C272   1.261       .  A
O263        V268   1.916   1_554  S
O263        C272   1.268       .  A
O264        C271   1.271       .  A
O265        V268   1.881       .  S
O265        C270   1.261       .  A
O266        C269   1.261       .  A
C269        C469   1.477       .  S
C270        C505   1.481       .  S
C271        C493   1.487       .  S
C272        C484   1.479       .  S
C273        C460   1.490       .  S
C273        N274   1.361       .  A
C273        N278   1.359       .  A
N274        C275   1.361       .  A
C275        C496   1.494       .  S
C275        N276   1.362       .  A
N276        C277   1.357       .  A
C277        C445   1.492       .  S
C277        N278   1.356       .  A
C279        C436   1.489       .  S
C279        N280   1.361       .  A
C279        N284   1.360       .  A
N280        C281   1.361       .  A
C281        C508   1.491       .  S
C281        N282   1.361       .  A
N282        C283   1.355       .  A
C283        C448   1.490       .  S
C283        N284   1.356       .  A
O285        V293   1.910       .  S
O285        C295   1.266       .  A
O286        V809   1.916       .  S
O286        C296   1.268       .  A
O287        V293   1.888       .  S
O287        C297   1.262       .  A
O288        V809   1.883       .  S
O288        C298   1.261       .  A
O289        V294   1.912       .  S
O289        C298   1.266       .  A
O290        V810   1.911       .  S
O290        C297   1.266       .  A
O291        V294   1.888       .  S
O291        C296   1.262       .  A
O292        V810   1.891       .  S
O292        C295   1.263       .  A
V293        O802   1.910       .  S
V293        O804   1.883       .  S
V293        V810   2.081       .  T
V294        O806   1.912   1_455  S
V294        O808   1.888   1_455  S
V294        V809   2.081       .  T
C295        C397   1.475       .  S
C296        C421   1.481       .  S
C297        C385   1.473       .  S
C298        C412   1.470       .  S
C299        C400   1.489       .  S
C299        N300   1.358       .  A
C299        N304   1.363       .  A
N300        C301   1.353       .  A
C301        C373   1.482       .  S
C301        N302   1.353       .  A
N302        C303   1.360       .  A
C303        C481   1.491       .  S
C303        N304   1.364       .  A
C305        C409   1.484       .  S
C305        N306   1.359       .  A
C305        N310   1.361       .  A
N306        C307   1.355       .  A
C307        C376   1.484       .  S
C307        N308   1.355       .  A
N308        C309   1.358       .  A
C309        C472   1.489       .  S
C309        N310   1.362       .  A
O311        V319   1.912       .  S
O311        C321   1.267       .  A
O312        V319   1.911       .  S
O312        C322   1.267       .  A
O313        V319   1.885       .  S
O313        C323   1.262       .  A
O314        V319   1.884       .  S
O314        C324   1.262       .  A
O315        V320   1.917       .  S
O315        C324   1.269       .  A
O316        V320   1.920       .  S
O316        C323   1.269       .  A
O317        V320   1.886       .  S
O317        C322   1.261       .  A
O318        V320   1.887       .  S
O318        C321   1.262       .  A
V319        V320   2.081       .  T
C321        C433   1.476       .  S
C322        C364   1.473       .  S
C323        C349   1.482       .  S
C324        C457   1.486       .  S
C325        C352   1.494       .  S
C325        N326   1.364       .  A
C325        N330   1.361       .  A
N326        C327   1.365       .  A
C327        C388   1.489       .  S
C327        N328   1.359       .  A
N328        C329   1.353       .  A
C329        C337   1.478       .  S
C329        N330   1.354       .  A
C331        C361   1.487       .  S
C331        N332   1.359       .  A
C331        N336   1.360       .  A
N332        C333   1.357       .  A
C333        C340   1.493       .  S
C333        N334   1.359       .  A
N334        C335   1.361       .  A
C335        C424   1.492       .  S
C335        N336   1.359       .  A
C337        C338   1.402       .  A
C337        C342   1.407       .  A
C338        H343   1.084       .  S
C339        C340   1.416       .  A
C339        O344   1.370       .  S
C340        C341   1.409       .  A
C341        H345   1.083       .  S
C342        O346   1.372       .  S
O344        H348   0.992       .  S
O346        H347   0.992       .  S
C349        C350   1.405       .  A
C349        C354   1.408       .  A
C350        C351   1.409       .  A
C350        H355   1.083       .  S
C351        C352   1.416       .  A
C351        O356   1.371       .  S
C352        C353   1.407       .  A
C353        C354   1.394       .  A
C353        H357   1.083       .  S
C354        O358   1.372       .  S
O356        H360   0.992       .  S
O358        H359   0.992       .  S
C361        C362   1.408       .  A
C361        C366   1.414       .  A
C362        C363   1.402       .  A
C362        H367   1.083       .  S
C363        C364   1.406       .  A
C363        O368   1.371       .  S
C364        C365   1.402       .  A
C365        C366   1.396       .  A
C365        H369   1.084       .  S
C366        O370   1.371       .  S
O368        H372   0.991       .  S
O370        H371   0.992       .  S
C373        C374   1.404       .  A
C373        C378   1.411       .  A
C374        C375   1.398       .  A
C374        H379   1.084       .  S
C375        C376   1.411       .  A
C375        O380   1.371       .  S
C376        C377   1.406       .  A
C377        C378   1.400       .  A
C377        H381   1.083       .  S
C378        O382   1.372       .  S
O380        H384   0.992       .  S
O382        H383   0.992       .  S
C385        C386   1.399       .  A
C385        C390   1.407       .  A
C386        C387   1.395       .  A
C386        H391   1.084       .  S
C387        C388   1.415       .  A
C387        O392   1.372       .  S
C388        C389   1.409       .  A
C389        C390   1.405       .  A
C389        H393   1.083       .  S
C390        O394   1.371       .  S
O392        H396   0.992       .  S
O394        H395   0.993       .  S
C397        C398   1.404       .  A
C397        C402   1.406       .  A
C398        C399   1.406       .  A
C398        H403   1.083       .  S
C399        C400   1.414       .  A
C399        O404   1.371       .  S
C400        C401   1.407       .  A
C401        C402   1.394       .  A
C401        H405   1.083       .  S
C402        O406   1.372       .  S
O404        H408   0.992       .  S
O406        H407   0.992       .  S
C409        C410   1.409       .  A
C409        C414   1.412       .  A
C410        C411   1.405       .  A
C410        H415   1.083       .  S
C411        C412   1.407       .  A
C411        O416   1.372       .  S
C412        C413   1.399       .  A
C413        C414   1.392       .  A
C413        H417   1.084       .  S
C414        O418   1.371       .  S
O416        H420   0.992       .  S
O418        H419   0.992       .  S
C421        C422   1.403       .  A
C421        C426   1.409       .  A
C422        C423   1.405       .  A
C422        H427   1.083       .  S
C423        C424   1.417       .  A
C423        O428   1.371       .  S
C424        C425   1.406       .  A
C425        C426   1.396       .  A
C425        H429   1.083       .  S
C426        O430   1.372       .  S
O428        H432   0.993       .  S
O430        H431   0.992       .  S
C433        C434   1.403       .  A
C433        C438   1.407       .  A
C434        C435   1.405       .  A
C434        H439   1.084       .  S
C435        C436   1.416       .  A
C435        O440   1.371       .  S
C436        C437   1.407       .  A
C437        C438   1.394       .  A
C437        H441   1.083       .  S
C438        O442   1.372       .  S
O440        H444   0.992       .  S
O442        H443   0.992       .  S
C445        C446   1.408       .  A
C445        C450   1.414       .  A
C446        C963   1.403   1_455  A
C446        H451   1.083       .  S
C447        C962   1.403       .  A
C447        C448   1.414       .  A
C447        O452   1.371       .  S
C448        C449   1.406       .  A
C449        C966   1.400       .  A
C449        H453   1.083       .  S
C450        C965   1.400   1_455  A
C450        O454   1.371       .  S
O452        H456   0.992       .  S
O454        H455   0.992       .  S
C457        C458   1.405       .  A
C457        C462   1.410       .  A
C458        C459   1.394       .  A
C458        H463   1.084       .  S
C459        C460   1.413       .  A
C459        O464   1.372       .  S
C460        C461   1.410       .  A
C461        C462   1.406       .  A
C461        H465   1.083       .  S
C462        O466   1.371       .  S
O464        H468   0.992       .  S
O466        H467   0.992       .  S
C469        C470   1.402       .  A
C469        C474   1.407       .  A
C470        C471   1.395       .  A
C470        H475   1.084       .  S
C471        C472   1.415       .  A
C471        O476   1.372       .  S
C472        C473   1.409       .  A
C473        C474   1.403       .  A
C473        H477   1.083       .  S
C474        O478   1.371       .  S
O476        H480   0.993       .  S
O478        H479   0.990       .  S
C481        C482   1.406       .  A
C481        C486   1.416       .  A
C482        C483   1.392       .  A
C482        H487   1.083       .  S
C483        C484   1.409       .  A
C483        O488   1.372       .  S
C484        C485   1.404       .  A
C485        C486   1.407       .  A
C485        H489   1.083       .  S
C486        O490   1.371       .  S
O488        H492   0.992       .  S
O490        H491   0.992       .  S
C493        C494   1.405       .  A
C493        C498   1.412       .  A
C494        C495   1.408       .  A
C494        H499   1.083       .  S
C495        C496   1.417       .  A
C495        O500   1.371       .  S
C496        C497   1.404       .  A
C497        C498   1.395       .  A
C497        H501   1.083       .  S
C498        O502   1.373       .  S
O500        H504   0.992       .  S
O502        H503   0.992       .  S
C505        C506   1.404       .  A
C505        C510   1.410       .  A
C506        C507   1.407       .  A
C506        H511   1.083       .  S
C507        C508   1.416       .  A
C507        O512   1.371       .  S
C508        C509   1.405       .  A
C509        C510   1.392       .  A
C509        H513   1.083       .  S
C510        O514   1.372       .  S
O512        H516   0.992       .  S
O514        H515   0.992       .  S
O517        V525   1.913       .  S
O517        C527   1.268       .  A
O518        V783   1.916   1_545  S
O518        C528   1.269       .  A
O519        V525   1.883   1_556  S
O519        C529   1.261       .  A
O520        V783   1.882   1_544  S
O520        C530   1.261       .  A
O521        V526   1.916   1_544  S
O521        C530   1.268       .  A
O522        V784   1.922       .  S
O522        C529   1.270       .  A
O523        V526   1.880   1_545  S
O523        C528   1.261       .  A
O524        V784   1.882   1_554  S
O524        C527   1.261       .  A
V525        O776   1.915   1_554  S
V525        O778   1.881       .  S
V525        V784   2.081   1_554  T
V526        O780   1.914       .  S
V526        O782   1.881   1_556  S
V526        V783   2.083       .  T
C527        C727   1.479       .  S
C528        C763   1.483       .  S
C529        C751   1.487       .  S
C530        C742   1.479       .  S
C531        C718   1.489       .  S
C531        N532   1.361       .  A
C531        N536   1.358       .  A
N532        C533   1.362       .  A
C533        C754   1.494       .  S
C533        N534   1.363       .  A
N534        C535   1.358       .  A
C535        C703   1.492       .  S
C535        N536   1.355       .  A
C537        C694   1.489       .  S
C537        N538   1.362       .  A
C537        N542   1.360       .  A
N538        C539   1.361       .  A
C539        C766   1.491       .  S
C539        N540   1.361       .  A
N540        C541   1.355       .  A
C541        C706   1.490       .  S
C541        N542   1.356       .  A
O543        V551   1.911   1_655  S
O543        C553   1.266       .  A
O544        C554   1.268       .  A
O545        V551   1.889   1_655  S
O545        C555   1.262       .  A
O546        C556   1.261       .  A
O547        V552   1.911       .  S
O547        C556   1.266       .  A
O548        C555   1.266       .  A
O549        V552   1.888       .  S
O549        C554   1.262       .  A
O550        C553   1.263       .  A
C553        C655   1.477       .  S
C554        C679   1.480       .  S
C555        C643   1.472       .  S
C556        C670   1.469       .  S
C557        C658   1.490       .  S
C557        N558   1.359       .  A
C557        N562   1.364       .  A
N558        C559   1.353       .  A
C559        C631   1.482       .  S
C559        N560   1.353       .  A
N560        C561   1.360       .  A
C561        C739   1.491       .  S
C561        N562   1.364       .  A
C563        C667   1.482       .  S
C563        N564   1.359       .  A
C563        N568   1.360       .  A
N564        C565   1.354       .  A
C565        C634   1.483       .  S
C565        N566   1.355       .  A
N566        C567   1.359       .  A
C567        C730   1.490       .  S
C567        N568   1.362       .  A
O569        V577   1.911       .  S
O569        C579   1.267       .  A
O570        V577   1.910       .  S
O570        C580   1.267       .  A
O571        V577   1.885       .  S
O571        C581   1.262       .  A
O572        V577   1.883       .  S
O572        C582   1.262       .  A
O573        V578   1.916       .  S
O573        C582   1.269       .  A
O574        V578   1.919       .  S
O574        C581   1.269       .  A
O575        V578   1.887       .  S
O575        C580   1.261       .  A
O576        V578   1.888       .  S
O576        C579   1.262       .  A
V577        V578   2.081       .  T
C579        C691   1.475       .  S
C580        C622   1.472       .  S
C581        C607   1.481       .  S
C582        C715   1.486       .  S
C583        C610   1.494       .  S
C583        N584   1.364       .  A
C583        N588   1.361       .  A
N584        C585   1.364       .  A
C585        C646   1.487       .  S
C585        N586   1.359       .  A
N586        C587   1.353       .  A
C587        C595   1.477       .  S
C587        N588   1.354       .  A
C589        C619   1.485       .  S
C589        N590   1.359       .  A
C589        N594   1.360       .  A
N590        C591   1.357       .  A
C591        C598   1.491       .  S
C591        N592   1.358       .  A
N592        C593   1.360       .  A
C593        C682   1.491       .  S
C593        N594   1.359       .  A
C595        C596   1.401       .  A
C595        C600   1.406       .  A
C596        C855   1.401   1_545  A
C596        H601   1.084       .  S
C597        C854   1.399       .  A
C597        C598   1.416       .  A
C597        O602   1.371       .  S
C598        C599   1.409       .  A
C599        C858   1.400       .  A
C599        H603   1.083       .  S
C600        C857   1.399   1_545  A
C600        O604   1.372       .  S
O602        H606   0.992       .  S
O604        H605   0.992       .  S
C607        C608   1.404       .  A
C607        C612   1.408       .  A
C608        C609   1.409       .  A
C608        H613   1.083       .  S
C609        C610   1.417       .  A
C609        O614   1.371       .  S
C610        C611   1.407       .  A
C611        C612   1.394       .  A
C611        H615   1.083       .  S
C612        O616   1.372       .  S
O614        H618   0.992       .  S
O616        H617   0.992       .  S
C619        C620   1.408       .  A
C619        C624   1.413       .  A
C620        C621   1.401       .  A
C620        H625   1.083       .  S
C621        C622   1.405       .  A
C621        O626   1.371       .  S
C622        C623   1.402       .  A
C623        C624   1.397       .  A
C623        H627   1.084       .  S
C624        O628   1.371       .  S
O626        H630   0.991       .  S
O628        H629   0.992       .  S
C631        C632   1.404       .  A
C631        C636   1.411       .  A
C632        C633   1.399       .  A
C632        H637   1.084       .  S
C633        C634   1.411       .  A
C633        O638   1.371       .  S
C634        C635   1.405       .  A
C635        C636   1.399       .  A
C635        H639   1.083       .  S
C636        O640   1.372       .  S
O638        H642   0.992       .  S
O640        H641   0.992       .  S
C643        C644   1.399       .  A
C643        C648   1.407       .  A
C644        C645   1.395       .  A
C644        H649   1.084       .  S
C645        C646   1.414       .  A
C645        O650   1.372       .  S
C646        C647   1.408       .  A
C647        C648   1.404       .  A
C647        H651   1.083       .  S
C648        O652   1.372       .  S
O650        H654   0.992       .  S
O652        H653   0.993       .  S
C655        C656   1.404       .  A
C655        C660   1.406       .  A
C656        C657   1.407       .  A
C656        H661   1.083       .  S
C657        C658   1.415       .  A
C657        O662   1.371       .  S
C658        C659   1.408       .  A
C659        C660   1.393       .  A
C659        H663   1.083       .  S
C660        O664   1.372       .  S
O662        H666   0.992       .  S
O664        H665   0.992       .  S
C667        C668   1.409       .  A
C667        C672   1.411       .  A
C668        C669   1.405       .  A
C668        H673   1.083       .  S
C669        C670   1.407       .  A
C669        O674   1.372       .  S
C670        C671   1.399       .  A
C671        C672   1.392       .  A
C671        H675   1.084       .  S
C672        O676   1.371       .  S
O674        H678   0.992       .  S
O676        H677   0.992       .  S
C679        C680   1.403       .  A
C679        C684   1.409       .  A
C680        C681   1.405       .  A
C680        H685   1.083       .  S
C681        C682   1.417       .  A
C681        O686   1.371       .  S
C682        C683   1.406       .  A
C683        C684   1.396       .  A
C683        H687   1.083       .  S
C684        O688   1.372       .  S
O686        H690   0.992       .  S
O688        H689   0.992       .  S
C691        C692   1.403       .  A
C691        C696   1.407       .  A
C692        C693   1.405       .  A
C692        H697   1.084       .  S
C693        C694   1.416       .  A
C693        O698   1.371       .  S
C694        C695   1.407       .  A
C695        C696   1.395       .  A
C695        H699   1.083       .  S
C696        O700   1.372       .  S
O698        H702   0.992       .  S
O700        H701   0.992       .  S
C703        C704   1.408       .  A
C703        C708   1.415       .  A
C704        H709   1.083       .  S
C705        C706   1.414       .  A
C705        O710   1.371       .  S
C706        C707   1.406       .  A
C707        H711   1.083       .  S
C708        O712   1.371       .  S
O710        H714   0.992       .  S
O712        H713   0.992       .  S
C715        C716   1.405       .  A
C715        C720   1.410       .  A
C716        C717   1.394       .  A
C716        H721   1.083       .  S
C717        C718   1.413       .  A
C717        O722   1.372       .  S
C718        C719   1.409       .  A
C719        C720   1.406       .  A
C719        H723   1.083       .  S
C720        O724   1.371       .  S
O722        H726   0.992       .  S
O724        H725   0.992       .  S
C727        C728   1.403       .  A
C727        C732   1.408       .  A
C728        C729   1.394       .  A
C728        H733   1.084       .  S
C729        C730   1.415       .  A
C729        O734   1.372       .  S
C730        C731   1.410       .  A
C731        C732   1.403       .  A
C731        H735   1.083       .  S
C732        O736   1.371       .  S
O734        H738   0.993       .  S
O736        H737   0.990       .  S
C739        C740   1.407       .  A
C739        C744   1.415       .  A
C740        C741   1.392       .  A
C740        H745   1.083       .  S
C741        C742   1.408       .  A
C741        O746   1.372       .  S
C742        C743   1.404       .  A
C743        C744   1.407       .  A
C743        H747   1.083       .  S
C744        O748   1.371       .  S
O746        H750   0.992       .  S
O748        H749   0.992       .  S
C751        C752   1.405       .  A
C751        C756   1.412       .  A
C752        C753   1.408       .  A
C752        H757   1.083       .  S
C753        C754   1.417       .  A
C753        O758   1.371       .  S
C754        C755   1.405       .  A
C755        C756   1.395       .  A
C755        H759   1.083       .  S
C756        O760   1.373       .  S
O758        H762   0.992       .  S
O760        H761   0.992       .  S
C763        C764   1.404       .  A
C763        C768   1.411       .  A
C764        C765   1.407       .  A
C764        H769   1.083       .  S
C765        C766   1.416       .  A
C765        O770   1.371       .  S
C766        C767   1.405       .  A
C767        C768   1.392       .  A
C767        H771   1.083       .  S
C768        O772   1.372       .  S
O770        H774   0.992       .  S
O772        H773   0.992       .  S
O775        V783   1.912   1_554  S
O775        C785   1.267       .  A
O776        C786   1.268       .  A
O777        V783   1.885       .  S
O777        C787   1.261       .  A
O778        C788   1.261       .  A
O779        V784   1.920   1_554  S
O779        C788   1.269       .  A
O780        C787   1.267       .  A
O781        V784   1.883       .  S
O781        C786   1.261       .  A
O782        C785   1.261       .  A
C785        C985   1.475       .  S
C786       C1021   1.475       .  S
C787       C1009   1.474       .  S
C788       C1000   1.480       .  S
C789        C976   1.491       .  S
C789        N790   1.360       .  A
C789        N794   1.358       .  A
N790        C791   1.361       .  A
C791       C1012   1.488       .  S
C791        N792   1.362       .  A
N792        C793   1.358       .  A
C793        C961   1.486       .  S
C793        N794   1.355       .  A
C795        C952   1.487       .  S
C795        N796   1.360       .  A
C795        N800   1.359       .  A
N796        C797   1.362       .  A
C797       C1024   1.491       .  S
C797        N798   1.363       .  A
N798        C799   1.356       .  A
C799        C964   1.485       .  S
C799        N800   1.354       .  A
O801        V809   1.918   1_655  S
O801        C811   1.269       .  A
O802        C812   1.268       .  A
O803        V809   1.884   1_655  S
O803        C813   1.262       .  A
O804        C814   1.262       .  A
O805        V810   1.914       .  S
O805        C814   1.267       .  A
O806        C813   1.267       .  A
O807        V810   1.889       .  S
O807        C812   1.263       .  A
O808        C811   1.262       .  A
C811        C913   1.483       .  S
C812        C937   1.486       .  S
C813        C901   1.481       .  S
C814        C928   1.477       .  S
C815        C916   1.494       .  S
C815        N816   1.361       .  A
C815        N820   1.363       .  A
N816        C817   1.357       .  A
C817        C889   1.493       .  S
C817        N818   1.355       .  A
N818        C819   1.361       .  A
C819        C997   1.494       .  S
C819        N820   1.363       .  A
C821        C925   1.488       .  S
C821        N822   1.359       .  A
C821        N826   1.361       .  A
N822        C823   1.354       .  A
C823        C892   1.481       .  S
C823        N824   1.354       .  A
N824        C825   1.359       .  A
C825        C988   1.490       .  S
C825        N826   1.362       .  A
O827        V835   1.915       .  S
O827        C837   1.267       .  A
O828        V835   1.912       .  S
O828        C838   1.267       .  A
O829        V835   1.880       .  S
O829        C839   1.261       .  A
O830        V835   1.882       .  S
O830        C840   1.262       .  A
O831        V836   1.915       .  S
O831        C840   1.268       .  A
O832        V836   1.914       .  S
O832        C839   1.268       .  A
O833        V836   1.886       .  S
O833        C838   1.262       .  A
O834        V836   1.883       .  S
O834        C837   1.262       .  A
V835        V836   2.082       .  T
C837        C949   1.475       .  S
C838        C880   1.478       .  S
C839        C865   1.477       .  S
C840        C973   1.481       .  S
C841        C868   1.490       .  S
C841        N842   1.363       .  A
C841        N846   1.359       .  A
N842        C843   1.365       .  A
C843        C904   1.490       .  S
C843        N844   1.359       .  A
N844        C845   1.352       .  A
C845        C853   1.475       .  S
C845        N846   1.351       .  A
C847        C877   1.493       .  S
C847        N848   1.362       .  A
C847        N852   1.363       .  A
N848        C849   1.358       .  A
C849        C856   1.494       .  S
C849        N850   1.355       .  A
N850        C851   1.358       .  A
C851        C940   1.490       .  S
C851        N852   1.361       .  A
C853        C854   1.401       .  A
C853        C858   1.406       .  A
C854        H859   1.084       .  S
C855        C856   1.415       .  A
C855        O860   1.369       .  S
C856        C857   1.410       .  A
C857        H861   1.083       .  S
C858        O862   1.372       .  S
O860        H864   0.992       .  S
O862        H863   0.992       .  S
C865        C866   1.404       .  A
C865        C870   1.408       .  A
C866        C867   1.407       .  A
C866        H871   1.083       .  S
C867        C868   1.415       .  A
C867        O872   1.371       .  S
C868        C869   1.406       .  A
C869        C870   1.390       .  A
C869        H873   1.083       .  S
C870        O874   1.372       .  S
O872        H876   0.992       .  S
O874        H875   0.992       .  S
C877        C878   1.411       .  A
C877        C882   1.415       .  A
C878        C879   1.405       .  A
C878        H883   1.083       .  S
C879        C880   1.407       .  A
C879        O884   1.371       .  S
C880        C881   1.401       .  A
C881        C882   1.395       .  A
C881        H885   1.084       .  S
C882        O886   1.370       .  S
O884        H888   0.992       .  S
O886        H887   0.992       .  S
C889        C890   1.408       .  A
C889        C894   1.416       .  A
C890        C891   1.401       .  A
C890        H895   1.083       .  S
C891        C892   1.409       .  A
C891        O896   1.371       .  S
C892        C893   1.402       .  A
C893        C894   1.401       .  A
C893        H897   1.084       .  S
C894        O898   1.371       .  S
O896        H900   0.992       .  S
O898        H899   0.992       .  S
C901        C902   1.402       .  A
C901        C906   1.409       .  A
C902        C903   1.393       .  A
C902        H907   1.084       .  S
C903        C904   1.415       .  A
C903        O908   1.372       .  S
C904        C905   1.410       .  A
C905        C906   1.405       .  A
C905        H909   1.083       .  S
C906        O910   1.371       .  S
O908        H912   0.992       .  S
O910        H911   0.992       .  S
C913        C914   1.404       .  A
C913        C918   1.409       .  A
C914        C915   1.407       .  A
C914        H919   1.083       .  S
C915        C916   1.416       .  A
C915        O920   1.371       .  S
C916        C917   1.407       .  A
C917        C918   1.396       .  A
C917        H921   1.083       .  S
C918        O922   1.372       .  S
O920        H924   0.992       .  S
O922        H923   0.992       .  S
C925        C926   1.411       .  A
C925        C930   1.413       .  A
C926        C927   1.406       .  A
C926        H931   1.083       .  S
C927        C928   1.408       .  A
C927        O932   1.371       .  S
C928        C929   1.401       .  A
C929        C930   1.392       .  A
C929        H933   1.084       .  S
C930        O934   1.371       .  S
O932        H936   0.992       .  S
O934        H935   0.992       .  S
C937        C938   1.406       .  A
C937        C942   1.411       .  A
C938        C939   1.405       .  A
C938        H943   1.083       .  S
C939        C940   1.414       .  A
C939        O944   1.371       .  S
C940        C941   1.406       .  A
C941        C942   1.395       .  A
C941        H945   1.083       .  S
C942        O946   1.372       .  S
O944        H948   0.992       .  S
O946        H947   0.992       .  S
C949        C950   1.403       .  A
C949        C954   1.407       .  A
C950        C951   1.407       .  A
C950        H955   1.083       .  S
C951        C952   1.415       .  A
C951        O956   1.371       .  S
C952        C953   1.405       .  A
C953        C954   1.392       .  A
C953        H957   1.083       .  S
C954        O958   1.372       .  S
O956        H960   0.992       .  S
O958        H959   0.992       .  S
C961        C962   1.405       .  A
C961        C966   1.412       .  A
C962        H967   1.083       .  S
C963        C964   1.410       .  A
C963        O968   1.372       .  S
C964        C965   1.404       .  A
C965        H969   1.084       .  S
C966        O970   1.371       .  S
O968        H972   0.992       .  S
O970        H971   0.992       .  S
C973        C974   1.402       .  A
C973        C978   1.408       .  A
C974        C975   1.394       .  A
C974        H979   1.084       .  S
C975        C976   1.414       .  A
C975        O980   1.372       .  S
C976        C977   1.411       .  A
C977        C978   1.405       .  A
C977        H981   1.083       .  S
C978        O982   1.371       .  S
O980        H984   0.992       .  S
O982        H983   0.992       .  S
C985        C986   1.401       .  A
C985        C990   1.406       .  A
C986        C987   1.394       .  A
C986        H991   1.084       .  S
C987        C988   1.415       .  A
C987        O992   1.372       .  S
C988        C989   1.410       .  A
C989        C990   1.404       .  A
C989        H993   1.083       .  S
C990        O994   1.371       .  S
O992        H996   0.993       .  S
O994        H995   0.990       .  S
C997        C998   1.407       .  A
C997       C1002   1.417       .  A
C998        C999   1.394       .  A
C998       H1003   1.083       .  S
C999       C1000   1.409       .  A
C999       O1004   1.373       .  S
C1000      C1001   1.404       .  A
C1001      C1002   1.408       .  A
C1001      H1005   1.083       .  S
C1002      O1006   1.371       .  S
O1004      H1008   0.992       .  S
O1006      H1007   0.992       .  S
C1009      C1010   1.401       .  A
C1009      C1014   1.407       .  A
C1010      C1011   1.404       .  A
C1010      H1015   1.084       .  S
C1011      C1012   1.416       .  A
C1011      O1016   1.371       .  S
C1012      C1013   1.406       .  A
C1013      C1014   1.397       .  A
C1013      H1017   1.083       .  S
C1014      O1018   1.373       .  S
O1016      H1020   0.992       .  S
O1018      H1019   0.992       .  S
C1021      C1022   1.402       .  A
C1021      C1026   1.408       .  A
C1022      C1023   1.406       .  A
C1022      H1027   1.084       .  S
C1023      C1024   1.417       .  A
C1023      O1028   1.371       .  S
C1024      C1025   1.406       .  A
C1025      C1026   1.394       .  A
C1025      H1029   1.083       .  S
C1026      O1030   1.372       .  S
O1028      H1032   0.992       .  S
O1030      H1031   0.992       .  S
