geometry optimzed in LAMMPS
_audit_creation_date              2020-11-30 
_audit_creation_method            'lammps2cif' 
_symmetry_space_group_name_H-M    'P1' 
_symmetry_Int_Tables_number       1 
_symmetry_cell_setting            triclinic 
loop_ 
_symmetry_equiv_pos_as_xyz 
  x,y,z 
_cell_length_a                    35.3892236 
_cell_length_b                    71.24297993784843 
_cell_length_c                    77.99196306484265 
_cell_angle_alpha                 89.78427635505396 
_cell_angle_beta                  90.02676998854021 
_cell_angle_gamma                 89.76990293080877 
loop_ 
_atom_site_label 
_atom_site_type_symbol 
_atom_site_fract_x 
_atom_site_fract_y 
_atom_site_fract_z 
_atom_site_charge 
N1          N  0.57342978  0.71508529  0.72584677    -0.27400
N2          N  0.55549719  0.69970949  0.72111035    -0.35200
C3          C  0.53433187  0.69352975  0.73429111     0.01000
C4          C  0.53952078  0.70559995  0.74791828     0.07000
C5          C  0.56439482  0.71908292  0.74215679    -0.06100
H6          H  0.51667044  0.68117672  0.73399886     0.07700
H7          H  0.57514238  0.73091636  0.74928811     0.08900
Cu8        Cu  0.56137526  0.68801187  0.69697113     0.44200
Cu9        Cu  0.60992506  0.72974971  0.71012645     0.42000
Cu10       Cu  0.62720637  0.71138855  0.66779053     0.43900
N11         N  0.57125315  0.67969979  0.67192886    -0.34800
N12         N  0.59456666  0.68828449  0.66123912    -0.29000
C13         C  0.59353650  0.67950588  0.64599735    -0.05100
C14         C  0.56855280  0.66465327  0.64720074     0.07100
C15         C  0.55504072  0.66519326  0.66382137     0.00900
H16         H  0.60979683  0.68362197  0.63486736     0.08500
H17         H  0.53492717  0.65570127  0.66962172     0.07600
N18         N  0.65588423  0.73423673  0.67790309    -0.36200
N19         N  0.64875271  0.74109822  0.69330316    -0.28400
C20         C  0.67216105  0.75549480  0.69637800    -0.03600
C21         C  0.69522303  0.75777349  0.68227387     0.05000
C22         C  0.68431010  0.74406980  0.67078490     0.03100
H23         H  0.67307838  0.76336423  0.70821545     0.08200
H24         H  0.69653705  0.74125410  0.65834424     0.07000
N25         N  0.40895982  0.69119032  0.90140297    -0.27400
N26         N  0.42752333  0.68052214  0.89033473    -0.35200
C27         C  0.43741169  0.66432050  0.89810981     0.01000
C28         C  0.42441687  0.66477312  0.91480920     0.07000
C29         C  0.40661525  0.68199149  0.91649571    -0.06100
H30         H  0.45360305  0.65320236  0.89215807     0.07700
H31         H  0.39349084  0.68755051  0.92793591     0.08900
Cu32       Cu  0.44091161  0.68854327  0.86536056     0.44200
Cu33       Cu  0.38798043  0.71800944  0.89579758     0.42000
Cu34       Cu  0.41585668  0.73602348  0.85465818     0.43900
N35         N  0.45443626  0.70111025  0.84203308    -0.34800
N36         N  0.44664492  0.71888886  0.83863063    -0.29000
C37         C  0.45891649  0.72314921  0.82281608    -0.05100
C38         C  0.47481023  0.70722488  0.81573565     0.07100
C39         C  0.47159420  0.69348763  0.82829203     0.00900
H40         H  0.45566657  0.73674940  0.81675895     0.08500
H41         H  0.48054922  0.67898805  0.82741211     0.07600
N42         N  0.37770957  0.74950068  0.87037201    -0.36200
N43         N  0.36773760  0.74334850  0.88570711    -0.28400
C44         C  0.34124284  0.75503348  0.89211621    -0.03600
C45         C  0.33387202  0.76901076  0.88006308     0.05000
C46         C  0.35752332  0.76491940  0.86646474     0.03100
H47         H  0.32760330  0.75317744  0.90440498     0.08200
H48         H  0.35905846  0.77227349  0.85431644     0.07000
N49         N  0.07458513  0.85864978  0.83611386    -0.27400
N50         N  0.05161658  0.87130042  0.84284572    -0.35200
C51         C  0.02590413  0.87648323  0.83097785     0.01000
C52         C  0.03308072  0.86655123  0.81609238     0.07000
C53         C  0.06403665  0.85534735  0.81984679    -0.06100
H54         H  0.00456831  0.88720073  0.83281918     0.07700
H55         H  0.07863631  0.84597821  0.81118396     0.08900
Cu56       Cu  0.05972766  0.88236038  0.86715669     0.44200
Cu57       Cu  0.12175148  0.84809041  0.84871215     0.42000
Cu58       Cu  0.15472982  0.87578889  0.88442011     0.43900
N59         N  0.08020196  0.89583034  0.88878101    -0.34800
N60         N  0.11583730  0.89508915  0.89380327    -0.29000
C61         C  0.12097343  0.90751713  0.90652516    -0.05100
C62         C  0.08666642  0.91619029  0.91006478     0.07100
C63         C  0.06145978  0.90818602  0.89861989     0.00900
H64         H  0.14786858  0.91008112  0.91264637     0.08500
H65         H  0.03167722  0.91130673  0.89730292     0.07600
N66         N  0.18199164  0.85168660  0.87588864    -0.36200
N67         N  0.16938309  0.84140210  0.86303012    -0.28400
C68         C  0.19156316  0.82615545  0.86136172    -0.03600
C69         C  0.21939164  0.82682523  0.87379111     0.05000
C70         C  0.21253848  0.84320375  0.88277642     0.03100
H71         H  0.18739756  0.81522117  0.85196136     0.08200
H72         H  0.22798590  0.84831079  0.89377102     0.07000
N73         N  0.93161063  0.85745340  0.72640595    -0.27400
N74         N  0.94191373  0.87488999  0.72304118    -0.35200
C75         C  0.96067339  0.88173570  0.73666085     0.01000
C76         C  0.96245062  0.86787554  0.74915939     0.07000
C77         C  0.94384886  0.85266328  0.74214889    -0.06100
H78         H  0.97186245  0.89581415  0.73746541     0.07700
H79         H  0.93912649  0.83916023  0.74814728     0.08900
Cu80       Cu  0.92991003  0.88828375  0.69995975     0.44200
Cu81       Cu  0.89900366  0.84144591  0.70997652     0.42000
Cu82       Cu  0.87368778  0.86197823  0.66905554     0.43900
N83         N  0.91653418  0.89791501  0.67551659    -0.34800
N84         N  0.89614703  0.88841242  0.66430054    -0.29000
C85         C  0.89402995  0.89830744  0.64959352    -0.05100
C86         C  0.91416289  0.91474126  0.65164786     0.07100
C87         C  0.92804514  0.91404210  0.66820921     0.00900
H88         H  0.87985604  0.89363250  0.63809109     0.08500
H89         H  0.94596713  0.92428539  0.67435227     0.07600
N90         N  0.85298447  0.83640220  0.67776424    -0.36200
N91         N  0.86188421  0.82912786  0.69285938    -0.28400
C92         C  0.84081250  0.81375814  0.69560926    -0.03600
C93         C  0.81759026  0.81111576  0.68155693     0.05000
C94         C  0.82629302  0.82568004  0.67042182     0.03100
H95         H  0.84097457  0.80564667  0.70737438     0.08200
H96         H  0.81289253  0.82878635  0.65826428     0.07000
C97         C  0.50392901  0.61148451  0.46474244     0.03000
C98         C  0.49778414  0.59296124  0.45930571    -0.13100
C99         C  0.49423752  0.57854045  0.47145407     0.00500
C100        C  0.49674763  0.58267014  0.48893597    -0.11600
C101        C  0.50276089  0.60107118  0.49443640     0.03000
C102        C  0.50634263  0.61551818  0.48232620    -0.11100
H103        H  0.49610512  0.58979071  0.44574971     0.08600
H104        H  0.49414731  0.57147346  0.49832220     0.06200
H105        H  0.51139454  0.62977063  0.48653851     0.06000
C106        C  0.44888352  0.46839949  0.46497000     0.03000
C107        C  0.45691110  0.48678799  0.45955100    -0.13100
C108        C  0.46669224  0.50047067  0.47158742     0.00500
C109        C  0.46857169  0.49573768  0.48899651    -0.11600
C110        C  0.46062503  0.47748699  0.49454076     0.03000
C111        C  0.45078357  0.46375548  0.48250324    -0.11100
H112        H  0.45522528  0.49045251  0.44607158     0.08600
H113        H  0.47574559  0.50640526  0.49832376     0.06200
H114        H  0.44424552  0.44963753  0.48674706     0.06000
C115        C  0.52927877  0.60895027  0.59671355     0.03000
C116        C  0.52427290  0.59031370  0.60221094    -0.13100
C117        C  0.51519899  0.57638107  0.59028759     0.00500
C118        C  0.51120185  0.58109679  0.57295622    -0.11600
C119        C  0.51610654  0.59960601  0.56739545     0.03000
C120        C  0.52513486  0.61357870  0.57929081    -0.11100
H121        H  0.52743453  0.58670036  0.61564532     0.08600
H122        H  0.50432081  0.57027876  0.56372710     0.06200
H123        H  0.52918661  0.62792143  0.57501309     0.06000
C124        C  0.46633598  0.46661362  0.59760281     0.03000
C125        C  0.46255130  0.46264980  0.58003437    -0.13100
C126        C  0.46891525  0.47679068  0.56782142     0.00500
C127        C  0.47894444  0.49479391  0.57322854    -0.11600
C128        C  0.48270275  0.49884969  0.59069042     0.03000
C129        C  0.47637713  0.48475130  0.60290046    -0.11100
H130        H  0.45484118  0.44866912  0.57591513     0.08600
H131        H  0.48376439  0.50573949  0.56378305     0.06200
H132        H  0.47929888  0.48785068  0.61642967     0.06000
C133        C  0.92704602  0.96821701  0.46586878     0.03000
C134        C  0.93839565  0.98639763  0.46108134    -0.13100
C135        C  0.94859563  0.99942446  0.47367594     0.00500
C136        C  0.94734674  0.99427384  0.49097565    -0.11600
C137        C  0.93633142  0.97620988  0.49589053     0.03000
C138        C  0.92608942  0.96313372  0.48332503    -0.11100
H139        H  0.93956786  0.99031331  0.44765308     0.08600
H140        H  0.95549949  0.00433776  0.50069024     0.06200
H141        H  0.91766807  0.94910121  0.48707367     0.06000
C142        C  0.02708089  0.10490756  0.46291149     0.03000
C143        C  0.01242057  0.08713208  0.45895338    -0.13100
C144        C  0.00363386  0.07448048  0.47215485     0.00500
C145        C  0.00944670  0.07963020  0.48924075    -0.11600
C146        C  0.02426324  0.09723385  0.49331789     0.03000
C147        C  0.03303551  0.10992104  0.48013390    -0.11100
H148        H  0.00813826  0.08314224  0.44570261     0.08600
H149        H  0.00286134  0.06976842  0.49943126     0.06200
H150        H  0.04462049  0.12355255  0.48323336     0.06000
C151        C  0.94478494  0.96968513  0.59892077     0.03000
C152        C  0.93978803  0.96466411  0.58166333    -0.13100
C153        C  0.94711289  0.97772552  0.56861869     0.00500
C154        C  0.95940586  0.99577573  0.57288334    -0.11600
C155        C  0.96459780  0.00087248  0.59004740     0.03000
C156        C  0.95723462  0.98781031  0.60309336    -0.11100
H157        H  0.93030664  0.95067275  0.57841791     0.08600
H158        H  0.96523038  0.00586431  0.56278735     0.06200
H159        H  0.96133909  0.99167608  0.61638790     0.06000
C160        C  0.04341876  0.10680611  0.59606050     0.03000
C161        C  0.03061478  0.08894474  0.60114724    -0.13100
C162        C  0.01867910  0.07599307  0.58880744     0.00500
C163        C  0.01988887  0.08082832  0.57142920    -0.11600
C164        C  0.03290677  0.09844509  0.56618708     0.03000
C165        C  0.04436507  0.11153058  0.57851408    -0.11100
H166        H  0.03010137  0.08513805  0.61461007     0.08600
H167        H  0.01109759  0.07070256  0.56188668     0.06200
H168        H  0.05445443  0.12519359  0.57448350     0.06000
N169        N  0.61304402  0.39049735  0.90165184    -0.27400
N170        N  0.58855395  0.39805870  0.89076095    -0.35200
C171        C  0.57059754  0.41240181  0.89854249     0.01000
C172        C  0.58421342  0.41396165  0.91513423     0.07000
C173        C  0.61107341  0.39982791  0.91662959    -0.06100
H174        H  0.54914894  0.42108338  0.89255263     0.07700
H175        H  0.62788160  0.39652465  0.92783974     0.08900
Cu176      Cu  0.57942017  0.38852721  0.86579703     0.44200
Cu177      Cu  0.64847893  0.36777573  0.89591471     0.42000
Cu178      Cu  0.63305171  0.34768299  0.85410997     0.43900
N179        N  0.57450385  0.37548190  0.84196103    -0.34800
N180        N  0.59413405  0.36031933  0.83788482    -0.29000
C181        C  0.58502845  0.35502936  0.82188041    -0.05100
C182        C  0.55839344  0.36746083  0.81546619     0.07100
C183        C  0.55232182  0.38026128  0.82856078     0.00900
H184        H  0.59696845  0.34300759  0.81536795     0.08500
H185        H  0.53330573  0.39218595  0.82832571     0.07600
N186        N  0.67309664  0.33764698  0.87124169    -0.36200
N187        N  0.67961069  0.34501286  0.88649934    -0.28400
C188        C  0.70851979  0.33559258  0.89392569    -0.03600
C189        C  0.72038383  0.32164320  0.88276959     0.05000
C190        C  0.69731301  0.32338743  0.86857716     0.03100
H191        H  0.72017515  0.33872297  0.90641037     0.08200
H192        H  0.69850100  0.31508292  0.85699411     0.07000
N193        N  0.45479341  0.35362479  0.72593721    -0.27400
N194        N  0.47053365  0.36975199  0.72152982    -0.35200
C195        C  0.49170437  0.37592676  0.73468866     0.01000
C196        C  0.48936321  0.36306939  0.74801701     0.07000
C197        C  0.46580964  0.34907961  0.74195915    -0.06100
H198        H  0.50712528  0.38900809  0.73468021     0.07700
H199        H  0.45676214  0.33666552  0.74882785     0.08900
Cu200      Cu  0.46175325  0.38303856  0.69800192     0.44200
Cu201      Cu  0.41654472  0.33920224  0.71056288     0.42000
Cu202      Cu  0.39270738  0.36122500  0.67025469     0.43900
N203        N  0.44763883  0.39322661  0.67373721    -0.34800
N204        N  0.42252994  0.38507592  0.66368154    -0.29000
C205        C  0.41964473  0.39482193  0.64895507    -0.05100
C206        C  0.44395483  0.40991529  0.64974440     0.07100
C207        C  0.46133003  0.40848187  0.66563064     0.00900
H208        H  0.40113557  0.39119293  0.63844118     0.08500
H209        H  0.48220135  0.41788103  0.67092567     0.07600
N210        N  0.36637833  0.33730073  0.67926703    -0.36200
N211        N  0.37539819  0.32902984  0.69392271    -0.28400
C212        C  0.35327400  0.31388840  0.69606223    -0.03600
C213        C  0.32921956  0.31263889  0.68210908     0.05000
C214        C  0.33828301  0.32770486  0.67171177     0.03100
H215        H  0.35437571  0.30454212  0.70702762     0.08200
H216        H  0.32550542  0.33139617  0.65954796     0.07000
N217        N  0.93024235  0.19276579  0.89983559    -0.27400
N218        N  0.95054488  0.18285408  0.88885581    -0.35200
C219        C  0.96487001  0.16771489  0.89695960     0.01000
C220        C  0.95293973  0.16812899  0.91382922     0.07000
C221        C  0.93101389  0.18416174  0.91521491    -0.06100
H222        H  0.98261267  0.15719032  0.89101555     0.07700
H223        H  0.91682950  0.18924056  0.92658440     0.08900
Cu224      Cu  0.95830016  0.19049880  0.86344405     0.44200
Cu225      Cu  0.90278884  0.21765902  0.89347897     0.42000
Cu226      Cu  0.91640691  0.23480389  0.85012865     0.43900
N227        N  0.96443800  0.20183399  0.83910038    -0.34800
N228        N  0.94975939  0.21812111  0.83427649    -0.29000
C229        C  0.96054363  0.22178378  0.81805798    -0.05100
C230        C  0.98300304  0.20708744  0.81242704     0.07100
C231        C  0.98476599  0.19468054  0.82608940     0.00900
H232        H  0.95319681  0.23437953  0.81099590     0.08500
H233        H  0.00031303  0.18158456  0.82665250     0.07600
N234        N  0.88270113  0.24829027  0.86820712    -0.36200
N235        N  0.87771771  0.24199925  0.88402137    -0.28400
C236        C  0.85270145  0.25316456  0.89210186    -0.03600
C237        C  0.84131769  0.26714034  0.88083244     0.05000
C238        C  0.86094942  0.26362487  0.86582512     0.03100
H239        H  0.84248224  0.25087139  0.90500903     0.08200
H240        H  0.85836300  0.27119968  0.85382087     0.07000
N241        N  0.09927710  0.21086843  0.72595251    -0.27400
N242        N  0.08272264  0.19494624  0.72172004    -0.35200
C243        C  0.05921203  0.18980407  0.73447204     0.01000
C244        C  0.06117708  0.20316985  0.74730733     0.07000
C245        C  0.08680112  0.21630869  0.74143713    -0.06100
H246        H  0.04201050  0.17728991  0.73441737     0.07700
H247        H  0.09568981  0.22892870  0.74794537     0.08900
Cu248      Cu  0.09232031  0.18168000  0.69837664     0.44200
Cu249      Cu  0.13768218  0.22464249  0.71040080     0.42000
Cu250      Cu  0.14950319  0.20762145  0.66715203     0.43900
N251        N  0.10079709  0.17338606  0.67309301    -0.34800
N252        N  0.11972480  0.18325903  0.66157113    -0.29000
C253        C  0.11625961  0.17494931  0.64617488    -0.05100
C254        C  0.09445705  0.15895561  0.64808573     0.07100
C255        C  0.08546689  0.15838022  0.66537276     0.00900
H256        H  0.12808991  0.18038818  0.63438228     0.08500
H257        H  0.06809094  0.14806977  0.67180510     0.07600
N258        N  0.17847213  0.23061816  0.67685014    -0.36200
N259        N  0.17395211  0.23668689  0.69272612    -0.28400
C260        C  0.19656025  0.25150483  0.69530442    -0.03600
C261        C  0.21634183  0.25495175  0.68037457     0.05000
C262        C  0.20431211  0.24144213  0.66890447     0.03100
H263        H  0.19869963  0.25913410  0.70724134     0.08200
H264        H  0.21371739  0.23957825  0.65582431     0.07000
C265        C  0.43756248  0.60337924  0.09999121     0.03000
C266        C  0.44536109  0.58467616  0.10473219    -0.13100
C267        C  0.45275693  0.57116633  0.09209239     0.00500
C268        C  0.45233796  0.57641240  0.07477178    -0.11600
C269        C  0.44480751  0.59498218  0.06990426     0.03000
C270        C  0.43737119  0.60847506  0.08253274    -0.11100
H271        H  0.44583493  0.58069702  0.11815288     0.08600
H272        H  0.45840504  0.56601598  0.06501930     0.06200
H273        H  0.43162055  0.62287748  0.07881216     0.06000
C274        C  0.51897702  0.46272632  0.09938537     0.03000
C275        C  0.50535807  0.48036564  0.10475420    -0.13100
C276        C  0.49747544  0.49442733  0.09257996     0.00500
C277        C  0.50319437  0.49080216  0.07516751    -0.11600
C278        C  0.51684551  0.47340116  0.06970171     0.03000
C279        C  0.52467486  0.45930196  0.08181105    -0.11100
H280        H  0.50124277  0.48315614  0.11827188     0.08600
H281        H  0.49739038  0.50172010  0.06578126     0.06200
H282        H  0.53542729  0.44581754  0.07761428     0.06000
C283        C  0.45231157  0.60823798  0.96687807     0.03000
C284        C  0.44775979  0.61210987  0.98446137    -0.13100
C285        C  0.45571840  0.59821040  0.99677029     0.00500
C286        C  0.46799151  0.58046518  0.99143973    -0.11600
C287        C  0.47244229  0.57639714  0.97400953     0.03000
C288        C  0.46468418  0.59031340  0.96171238    -0.11100
H289        H  0.43821401  0.62586147  0.98852484     0.08600
H290        H  0.47389029  0.56968464  0.00093652     0.06200
H291        H  0.46812857  0.58721284  0.94821140     0.06000
C292        C  0.53896977  0.46812145  0.96674578     0.03000
C293        C  0.53909515  0.46338179  0.98427954    -0.13100
C294        C  0.52857956  0.47676011  0.99657119     0.00500
C295        C  0.51782556  0.49479459  0.99129819    -0.11600
C296        C  0.51765346  0.49972275  0.97391924     0.03000
C297        C  0.52823600  0.48636273  0.96160109    -0.11100
H298        H  0.54752406  0.44941159  0.98832645     0.08600
H299        H  0.50976415  0.50512327  0.00081451     0.06200
H300        H  0.52825806  0.49013468  0.94813020     0.06000
N301        N  0.53113213  0.72291247  0.33728180    -0.27400
N302        N  0.51473393  0.70703858  0.34186239    -0.35200
C303        C  0.49540227  0.70023810  0.32840046     0.01000
C304        C  0.49960026  0.71253149  0.31472823     0.00600
C305        C  0.52240893  0.72674594  0.32085771    -0.06100
H306        H  0.47933617  0.68735339  0.32858043     0.07700
H307        H  0.53195142  0.73899922  0.31388770     0.08900
Cu308      Cu  0.51900779  0.69579009  0.36637121     0.44200
Cu309      Cu  0.56637739  0.73800193  0.35327264     0.42000
Cu310      Cu  0.58464409  0.71871777  0.39552933     0.43900
N311        N  0.52751405  0.68757123  0.39163717    -0.34800
N312        N  0.55115974  0.69592325  0.40228239    -0.29000
C313        C  0.55118399  0.68658756  0.41731419    -0.05100
C314        C  0.52652355  0.67161783  0.41602586     0.07100
C315        C  0.51198146  0.67270695  0.39959761     0.00900
H316        H  0.56887081  0.69002899  0.42816810     0.08500
H317        H  0.49266093  0.66296968  0.39363828     0.07600
N318        N  0.61471014  0.74099833  0.38502254    -0.36200
N319        N  0.60716799  0.74826428  0.36976023    -0.28400
C320        C  0.63209563  0.76195213  0.36633430    -0.03600
C321        C  0.65659127  0.76333824  0.38004489     0.05000
C322        C  0.64487785  0.74985262  0.39168108     0.03100
H323        H  0.63313862  0.76986878  0.35447236     0.08200
H324        H  0.65778950  0.74647051  0.40388621     0.07000
N325        N  0.39656739  0.71830312  0.22466617    -0.27400
N326        N  0.41662076  0.70333832  0.22043574    -0.35200
C327        C  0.43872681  0.69843125  0.23378316     0.01000
C328        C  0.43227911  0.71096305  0.24701550     0.07000
C329        C  0.40545742  0.72339542  0.24074825    -0.06100
H330        H  0.45772164  0.68649623  0.23393235     0.07700
H331        H  0.39296507  0.73514271  0.24746167     0.08900
Cu332      Cu  0.41193104  0.69030347  0.19673354     0.44200
Cu333      Cu  0.35649272  0.73036515  0.20870590     0.42000
Cu334      Cu  0.33909871  0.70847514  0.16756068     0.43900
N335        N  0.40168877  0.67962345  0.17239941    -0.34800
N336        N  0.37546771  0.68613047  0.16179416    -0.29000
C337        C  0.37589472  0.67570457  0.14741131    -0.05100
C338        C  0.40359281  0.66198801  0.14905853     0.07100
C339        C  0.41933323  0.66493276  0.16505827     0.00900
H340        H  0.35700839  0.67774523  0.13664671     0.08500
H341        H  0.44144914  0.65671785  0.17109333     0.07600
N342        N  0.30737675  0.73102860  0.17700298    -0.36200
N343        N  0.31456996  0.73903976  0.19192667    -0.28400
C344        C  0.28962359  0.75298538  0.19458829    -0.03600
C345        C  0.26541342  0.75385208  0.18073918     0.05000
C346        C  0.27731721  0.73971783  0.16980063     0.03100
H347        H  0.28879685  0.76169105  0.20592953     0.08200
H348        H  0.26495087  0.73598475  0.15760020     0.07000
N349        N  0.90555719  0.85788213  0.33866096    -0.27400
N350        N  0.91767019  0.87487412  0.34253482    -0.35200
C351        C  0.93781521  0.88164768  0.32924154     0.01000
C352        C  0.93812757  0.86825042  0.31642656     0.07000
C353        C  0.91745061  0.85339066  0.32283442    -0.06100
H354        H  0.95046713  0.89543736  0.32876785     0.07700
H355        H  0.91082828  0.84043440  0.31631533     0.08900
Cu356      Cu  0.90430608  0.88802150  0.36552259     0.44200
Cu357      Cu  0.87126698  0.84209369  0.35455383     0.42000
Cu358      Cu  0.84498724  0.86199524  0.39562519     0.43900
N359        N  0.88896345  0.89775800  0.38965532    -0.34800
N360        N  0.86801257  0.88829670  0.40074217    -0.29000
C361        C  0.86613020  0.89802625  0.41551101    -0.05100
C362        C  0.88692818  0.91433744  0.41361471     0.07100
C363        C  0.90079995  0.91371257  0.39704645     0.00900
H364        H  0.85205800  0.89320617  0.42701538     0.08500
H365        H  0.91956636  0.92373460  0.39105760     0.07600
N366        N  0.82344139  0.83687101  0.38617701    -0.36200
N367        N  0.83284574  0.82985286  0.37109084    -0.28400
C368        C  0.81075791  0.81502029  0.36769183    -0.03600
C369        C  0.78624099  0.81246792  0.38128413     0.05000
C370        C  0.79528833  0.82649987  0.39284494     0.03100
H371        H  0.81089967  0.80740001  0.35571033     0.08200
H372        H  0.78086194  0.82964808  0.40472191     0.07000
N373        N  0.04505464  0.87824490  0.15882624    -0.27400
N374        N  0.02413568  0.88822277  0.16955003    -0.35200
C375        C  0.00941423  0.90304543  0.16104106     0.01000
C376        C  0.02171172  0.90237666  0.14421116     0.07000
C377        C  0.04431122  0.88652495  0.14327133    -0.06100
H378        H  0.99171624  0.91373617  0.16676101     0.07700
H379        H  0.05953544  0.88153024  0.13215059     0.08900
Cu380      Cu  0.01753743  0.88166978  0.19549206     0.44200
Cu381      Cu  0.07465401  0.85399951  0.16577540     0.42000
Cu382      Cu  0.06352534  0.83890764  0.20971655     0.43900
N383        N  0.01517055  0.87169734  0.22066735    -0.34800
N384        N  0.03156431  0.85588581  0.22566662    -0.29000
C385        C  0.02415986  0.85296878  0.24236866    -0.05100
C386        C  0.00213096  0.86766011  0.24826506     0.07100
C387        C  0.99698495  0.87930289  0.23415498     0.00900
H388        H  0.03367939  0.84088244  0.24964256     0.08500
H389        H  0.98081833  0.89221434  0.23368038     0.07600
N390        N  0.09783952  0.82517408  0.19223963    -0.36200
N391        N  0.10223310  0.83064760  0.17614639    -0.28400
C392        C  0.12830087  0.81955377  0.16864534    -0.03600
C393        C  0.14090869  0.80653396  0.18063188     0.05000
C394        C  0.12093607  0.81053772  0.19541418     0.03100
H395        H  0.13830681  0.82124642  0.15562849     0.08200
H396        H  0.12413789  0.80379737  0.20779627     0.07000
N397        N  0.41959758  0.35547658  0.33977818    -0.27400
N398        N  0.43548440  0.37175712  0.34336165    -0.35200
C399        C  0.45661658  0.37717461  0.32986051     0.01000
C400        C  0.45358751  0.36362856  0.31723837     0.07000
C401        C  0.43000111  0.35009568  0.32398204    -0.06100
H402        H  0.47205044  0.39022469  0.32907819     0.07700
H403        H  0.42027235  0.33750297  0.31767753     0.08900
Cu404      Cu  0.42496392  0.38600277  0.36613763     0.44200
Cu405      Cu  0.38215160  0.34193060  0.35585258     0.42000
Cu406      Cu  0.35529986  0.36462686  0.39518339     0.43900
N407        N  0.40898073  0.39712110  0.38972243    -0.34800
N408        N  0.38392885  0.38942441  0.40017984    -0.29000
C409        C  0.38206303  0.39959638  0.41466492    -0.05100
C410        C  0.40712309  0.41436660  0.41328768     0.07100
C411        C  0.42357808  0.41240066  0.39729656     0.00900
H412        H  0.36485995  0.39606319  0.42566842     0.08500
H413        H  0.44555672  0.42106541  0.39182233     0.07600
N414        N  0.33213600  0.33944965  0.38700272    -0.36200
N415        N  0.34222854  0.33128705  0.37251418    -0.28400
C416        C  0.32114558  0.31589588  0.37015768    -0.03600
C417        C  0.29660327  0.31416037  0.38383550     0.05000
C418        C  0.30438201  0.32932657  0.39433391     0.03100
H419        H  0.32268582  0.30694871  0.35898862     0.08200
H420        H  0.29024603  0.33300922  0.40615391     0.07000
N421        N  0.54300341  0.34910492  0.22552961    -0.27400
N422        N  0.53027043  0.36605422  0.22164166    -0.35200
C423        C  0.51235639  0.37318805  0.23539461     0.01000
C424        C  0.51407936  0.36006555  0.24852857     0.07000
C425        C  0.53362571  0.34496505  0.24180276    -0.06100
H426        H  0.49950149  0.38697749  0.23588546     0.07700
H427        H  0.54089971  0.33201194  0.24832214     0.08900
Cu428      Cu  0.53940717  0.37857058  0.19787378     0.44200
Cu429      Cu  0.57458872  0.33297006  0.20887548     0.42000
Cu430      Cu  0.60169065  0.35378962  0.16809493     0.43900
N431        N  0.55261326  0.38820944  0.17339070    -0.34800
N432        N  0.57542534  0.37942581  0.16259140    -0.29000
C433        C  0.57713831  0.38937362  0.14786901    -0.05100
C434        C  0.55422507  0.40507516  0.14950151     0.07100
C435        C  0.53916022  0.40386528  0.16581480     0.00900
H436        H  0.59317228  0.38527535  0.13667619     0.08500
H437        H  0.51941322  0.41353947  0.17166735     0.07600
N438        N  0.62229055  0.32808659  0.17713250    -0.36200
N439        N  0.61150870  0.32051679  0.19184287    -0.28400
C440        C  0.63120796  0.30465287  0.19463557    -0.03600
C441        C  0.65567549  0.30203284  0.18108714     0.05000
C442        C  0.64936327  0.31714132  0.17018735     0.03100
H443        H  0.62936556  0.29619842  0.20616389     0.08200
H444        H  0.66447658  0.32035749  0.15849805     0.07000
N445        N  0.06145266  0.21574541  0.33507091    -0.27400
N446        N  0.05136445  0.19821185  0.33814374    -0.35200
C447        C  0.03291054  0.19152498  0.32439627     0.01000
C448        C  0.03073282  0.20559719  0.31212027     0.07000
C449        C  0.04909809  0.22077499  0.31938566    -0.06100
H450        H  0.02170717  0.17746184  0.32345829     0.07700
H451        H  0.05325883  0.23447046  0.31367453     0.08900
Cu452      Cu  0.06106014  0.18455343  0.36128813     0.44200
Cu453      Cu  0.09383007  0.23146960  0.35193153     0.42000
Cu454      Cu  0.11743254  0.20916286  0.39257263     0.43900
N455        N  0.06915774  0.17512698  0.38623785    -0.34800
N456        N  0.08962058  0.18416255  0.39772575    -0.29000
C457        C  0.08822408  0.17477093  0.41271474    -0.05100
C458        C  0.06572763  0.15911654  0.41054423     0.07100
C459        C  0.05412350  0.15977755  0.39361596     0.00900
H460        H  0.10213650  0.17913623  0.42438581     0.08500
H461        H  0.03582697  0.14991896  0.38718058     0.07600
N462        N  0.14147132  0.23402521  0.38401747    -0.36200
N463        N  0.13246744  0.24226376  0.36933415    -0.28400
C464        C  0.15417659  0.25755072  0.36723154    -0.03600
C465        C  0.17795123  0.25899668  0.38123767     0.05000
C466        C  0.16913753  0.24386881  0.39163735     0.03100
H467        H  0.15359103  0.26660633  0.35605696     0.08200
H468        H  0.18245451  0.24005211  0.40364833     0.07000
N469        N  0.91323126  0.21204098  0.22607214    -0.27400
N470        N  0.93881683  0.20102884  0.21886478    -0.35200
C471        C  0.96540369  0.19664175  0.23060366     0.01000
C472        C  0.95614365  0.20540238  0.24587969     0.07000
C473        C  0.92298436  0.21507417  0.24248577    -0.06100
H474        H  0.98919319  0.18740496  0.22831189     0.07700
H475        H  0.90678671  0.22347333  0.25139460     0.08900
Cu476      Cu  0.93446832  0.19129391  0.19379615     0.44200
Cu477      Cu  0.86508044  0.22180888  0.21369514     0.42000
Cu478      Cu  0.84221161  0.19897319  0.17424272     0.43900
N479        N  0.91661771  0.17855373  0.17124637    -0.34800
N480        N  0.88158912  0.17972629  0.16548822    -0.29000
C481        C  0.87716237  0.16757538  0.15253235    -0.05100
C482        C  0.91139031  0.15865212  0.14946412     0.07100
C483        C  0.93583766  0.16619471  0.16155453     0.00900
H484        H  0.85067795  0.16532988  0.14595666     0.08500
H485        H  0.96535586  0.16280462  0.16339910     0.07600
N486        N  0.81226555  0.22181365  0.18345957    -0.36200
N487        N  0.82036437  0.23003246  0.19815849    -0.28400
C488        C  0.79686321  0.24468345  0.20039674    -0.03600
C489        C  0.77309900  0.24589450  0.18632428     0.05000
C490        C  0.78369826  0.23116086  0.17582419     0.03100
H491        H  0.79747578  0.25399453  0.21132474     0.08200
H492        H  0.77202214  0.22770287  0.16341754     0.07000
C493        C  0.99349476  0.95821959  0.09153557     0.03000
C494        C  0.99919870  0.95459518  0.07398627    -0.13100
C495        C  0.99377163  0.96896168  0.06182977     0.00500
C496        C  0.98262031  0.98682231  0.06727100    -0.11600
C497        C  0.97681018  0.99061491  0.08464927     0.03000
C498        C  0.98216255  0.97626657  0.09680674    -0.11100
H499        H  0.00862804  0.94084212  0.06987470     0.08600
H500        H  0.97939680  0.99802704  0.05791952     0.06200
H501        H  0.97829675  0.97921537  0.11031374     0.06000
C502        C  0.94332696  0.10185391  0.09780647     0.03000
C503        C  0.94224419  0.08233193  0.10094125    -0.13100
C504        C  0.95265712  0.06964807  0.08802627     0.00500
C505        C  0.96146846  0.07634930  0.07165696    -0.11600
C506        C  0.96121907  0.09558470  0.06818873     0.03000
C507        C  0.95364613  0.10831319  0.08136774    -0.11100
H508        H  0.93392740  0.07701703  0.11340377     0.08600
H509        H  0.96835676  0.06652624  0.06152633     0.06200
H510        H  0.95489399  0.12323567  0.07868775     0.06000
C511        C  0.04854852  0.97215540  0.96152304     0.03000
C512        C  0.03592946  0.96548035  0.97757881    -0.13100
C513        C  0.02682157  0.97805517  0.99072739     0.00500
C514        C  0.02737161  0.99734665  0.98746535    -0.11600
C515        C  0.03831586  0.00419886  0.97140474     0.03000
C516        C  0.05034270  0.99168203  0.95868534    -0.11100
H517        H  0.03423587  0.95052283  0.98002120     0.08600
H518        H  0.01914354  0.00707884  0.99746310     0.06200
H519        H  0.06023889  0.99714963  0.94651990     0.06000
C520        C  0.98678789  0.11400479  0.96694206     0.03000
C521        C  0.98121011  0.11778021  0.98444501    -0.13100
C522        C  0.98920315  0.10388617  0.99673270     0.00500
C523        C  0.00268387  0.08635336  0.99146368    -0.11600
C524        C  0.00819356  0.08247234  0.97407681     0.03000
C525        C  0.00042896  0.09636153  0.96180813    -0.11100
H526        H  0.97016065  0.13128246  0.98843148     0.08600
H527        H  0.00782497  0.07545017  0.00093534     0.06200
H528        H  0.00425404  0.09334269  0.94830868     0.06000
C529        C  0.99182284  0.05087193  0.96266358    -0.01900
C530        C  0.01931325  0.06323942  0.96912930     0.07700
C531        C  0.05542192  0.05637210  0.97361356    -0.02000
C532        C  0.06286010  0.03696715  0.97315543    -0.02000
C533        C  0.03437076  0.02448628  0.96795970     0.07900
C534        C  0.99942286  0.03150824  0.96204818    -0.02200
Br535      Br  0.96073396  0.01437295  0.95456379    -0.00800
Br536      Br  0.94244827  0.06015956  0.95625308    -0.00900
Br537      Br  0.11102874  0.02729017  0.98072669    -0.00800
Br538      Br  0.09396802  0.07357445  0.98110438    -0.00800
C539        C  0.00402372  0.10594024  0.04457368    -0.01900
C540        C  0.96729027  0.10196783  0.05040494     0.07700
C541        C  0.93693429  0.10150275  0.03872722    -0.02000
C542        C  0.94372052  0.10364629  0.02108001    -0.02000
C543        C  0.98082301  0.10654059  0.01511176     0.07900
C544        C  0.01074742  0.10838307  0.02692511    -0.02200
Br545      Br  0.06121885  0.11319541  0.01876010    -0.00800
Br546      Br  0.04536636  0.10652022  0.06068096    -0.00900
Br547      Br  0.90278063  0.10071511  0.00498216    -0.00800
Br548      Br  0.88643723  0.09652813  0.04686522    -0.00800
C549        C  0.97300641  0.96641977  0.03127922    -0.01900
C550        C  0.00255590  0.96642286  0.04343085     0.07700
C551        C  0.04032559  0.96778919  0.03785932    -0.02000
C552        C  0.04834595  0.97022558  0.02032955    -0.02000
C553        C  0.01864946  0.97146824  0.00832799     0.07900
C554        C  0.98103356  0.96905543  0.01374782    -0.02200
Br555      Br  0.94052449  0.97072773  0.99725659    -0.00800
Br556      Br  0.92141293  0.96387526  0.03886167    -0.00900
Br557      Br  0.09989442  0.97348042  0.01287931    -0.00800
Br558      Br  0.08084858  0.96828894  0.05441915    -0.00800
C559        C  0.93205889  0.01783448  0.08510872    -0.01900
C560        C  0.96748671  0.01012963  0.08963662     0.07700
C561        C  0.99615121  0.02193983  0.09595617    -0.02000
C562        C  0.99022327  0.04147304  0.09666013    -0.02000
C563        C  0.95551632  0.04923567  0.09122490     0.07900
C564        C  0.92610052  0.03735524  0.08590746    -0.02200
Br565      Br  0.87870340  0.04807848  0.07844745    -0.00800
Br566      Br  0.89250354  0.00169162  0.07678242    -0.00900
Br567      Br  0.03095983  0.05780984  0.10337428    -0.00800
Br568      Br  0.04489270  0.01162606  0.10196239    -0.00800
C569        C  0.95198983  0.11504793  0.12762324    -0.01900
C570        C  0.93377183  0.11568152  0.11149104     0.07700
C571        C  0.90757931  0.13026473  0.10813241    -0.02000
C572        C  0.90307350  0.14507571  0.11984073    -0.02000
C573        C  0.91938020  0.14387754  0.13640070     0.07900
C574        C  0.94263757  0.12821757  0.14039704    -0.02200
Br575      Br  0.95986373  0.12350334  0.16354442    -0.00800
Br576      Br  0.99176276  0.09704122  0.13218995    -0.00900
Br577      Br  0.87774317  0.16763081  0.11201412    -0.00800
Br578      Br  0.87560549  0.12955456  0.08801956    -0.00800
C579        C  0.97447772  0.19853888  0.29349864    -0.01900
C580        C  0.01224940  0.20471819  0.29501325     0.07700
C581        C  0.03218084  0.21015575  0.28009877    -0.02000
C582        C  0.01401336  0.21023146  0.26400331    -0.02000
C583        C  0.97619323  0.20425202  0.26256674     0.07900
C584        C  0.95693186  0.19786851  0.27729959    -0.02200
Br585      Br  0.90692862  0.18730585  0.27525580    -0.00800
Br586      Br  0.94532820  0.19213973  0.31361908    -0.00900
Br587      Br  0.04065969  0.21938132  0.24407261    -0.00800
Br588      Br  0.08498155  0.21678611  0.28140339    -0.00800
C589        C  0.67699775  0.26861434  0.17913983    -0.01900
C590        C  0.68612993  0.28780356  0.18033695     0.07700
C591        C  0.72411480  0.29323208  0.18238890    -0.02000
C592        C  0.75273533  0.27951818  0.18361618    -0.02000
C593        C  0.74346588  0.26025820  0.18316606     0.07900
C594        C  0.70555028  0.25485652  0.18052923    -0.02200
Br595      Br  0.69200327  0.22863947  0.17987291    -0.00800
Br596      Br  0.62512518  0.26118644  0.17576119    -0.00900
Br597      Br  0.80480027  0.28729902  0.18546719    -0.00800
Br598      Br  0.73684840  0.31942809  0.18478258    -0.00800
C599        C  0.22794743  0.30568851  0.38596919    -0.01900
C600        C  0.26622603  0.30003489  0.38547772     0.07700
C601        C  0.27534813  0.28074212  0.38487218    -0.02000
C602        C  0.24649096  0.26725554  0.38379183    -0.02000
C603        C  0.20827751  0.27295827  0.38370393     0.07900
C604        C  0.19910309  0.29215754  0.38517825    -0.02200
Br605      Br  0.14682959  0.29994431  0.38615509    -0.00800
Br606      Br  0.21453284  0.33197835  0.38651434    -0.00900
Br607      Br  0.25962821  0.24108918  0.38117892    -0.00800
Br608      Br  0.32751284  0.27269379  0.38577537    -0.00800
C609        C  0.44500417  0.36510896  0.28544300    -0.01900
C610        C  0.46943554  0.36396969  0.29970686     0.07700
C611        C  0.50868027  0.36210517  0.29714563    -0.02000
C612        C  0.52338807  0.36109252  0.28039004    -0.02000
C613        C  0.49884585  0.36181611  0.26611793     0.07900
C614        C  0.45961033  0.36382949  0.26870555    -0.02200
Br615      Br  0.42545782  0.36360170  0.24939591    -0.00800
Br616      Br  0.39145348  0.36887930  0.28879622    -0.00900
Br617      Br  0.57730234  0.35903123  0.27706055    -0.00800
Br618      Br  0.54217635  0.36011235  0.31660890    -0.00800
C619        C  0.97957719  0.91689116  0.12186511    -0.01900
C620        C  0.01461778  0.91639779  0.13048582     0.07700
C621        C  0.04302510  0.92931162  0.12594477    -0.02000
C622        C  0.03625820  0.94280198  0.11303408    -0.02000
C623        C  0.00109108  0.94343514  0.10454708     0.07900
C624        C  0.97294948  0.93028482  0.10882334    -0.02200
Br625      Br  0.92539015  0.93068696  0.09673573    -0.00800
Br626      Br  0.94084887  0.89905981  0.12781357    -0.00900
Br627      Br  0.07532812  0.96034231  0.10680857    -0.00800
Br628      Br  0.09091856  0.92885334  0.13777225    -0.00800
C629        C  0.93077171  0.87052457  0.28461110    -0.01900
C630        C  0.95464250  0.86975332  0.29906847     0.07700
C631        C  0.99413556  0.86949360  0.29685341    -0.02000
C632        C  0.00970194  0.86961500  0.28022369    -0.02000
C633        C  0.98580505  0.86955733  0.26570001     0.07900
C634        C  0.94622976  0.87020875  0.26797775    -0.02200
Br635      Br  0.91275747  0.86934875  0.24844704    -0.00800
Br636      Br  0.87670273  0.87221586  0.28762022    -0.00900
Br637      Br  0.06387300  0.87034125  0.27742761    -0.00800
Br638      Br  0.02688276  0.86795119  0.31661321    -0.00800
C639        C  0.20941266  0.79901682  0.17565407    -0.01900
C640        C  0.17227508  0.79278569  0.17896139     0.07700
C641        C  0.16563161  0.77348805  0.18180004    -0.02000
C642        C  0.19594322  0.76058783  0.18162279    -0.02000
C643        C  0.23308424  0.76691292  0.17875479     0.07900
C644        C  0.23968196  0.78610889  0.17559871    -0.02200
Br645      Br  0.29051033  0.79474801  0.17146706    -0.00800
Br646      Br  0.21958757  0.82540949  0.17249325    -0.00900
Br647      Br  0.18689733  0.73435541  0.18622231    -0.00800
Br648      Br  0.11495895  0.76465379  0.18597072    -0.00800
C649        C  0.68477498  0.79521951  0.38303195    -0.01900
C650        C  0.68985050  0.77572292  0.38120061     0.07700
C651        C  0.72654796  0.76822623  0.37947438    -0.02000
C652        C  0.75815246  0.78019032  0.37976341    -0.02000
C653        C  0.75315857  0.79975987  0.38167800     0.07900
C654        C  0.71623622  0.80724087  0.38309856    -0.02200
Br655      Br  0.70802630  0.83405494  0.38367030    -0.00800
Br656      Br  0.63448606  0.80546801  0.38548632    -0.00900
Br657      Br  0.80824111  0.76961928  0.37763077    -0.00800
Br658      Br  0.73335203  0.74163389  0.37583027    -0.00800
C659        C  0.50554255  0.71212417  0.28265423    -0.01900
C660        C  0.48246862  0.71126364  0.29740952     0.07700
C661        C  0.44288425  0.70986413  0.29553334    -0.02000
C662        C  0.42654783  0.70950152  0.27906436    -0.02000
C663        C  0.44956559  0.71084254  0.26433233     0.07900
C664        C  0.48911395  0.71219918  0.26619817    -0.02200
Br665      Br  0.52087566  0.71529102  0.24626062    -0.00800
Br666      Br  0.55991712  0.71235553  0.28482641    -0.00900
Br667      Br  0.37252096  0.70660572  0.27681030    -0.00800
Br668      Br  0.41045348  0.70937230  0.31545227    -0.00800
C669        C  0.52298299  0.55239965  0.96897295    -0.01900
C670        C  0.48431075  0.55718476  0.96916150     0.07700
C671        C  0.45691368  0.54296887  0.96789573    -0.02000
C672        C  0.46799786  0.52396397  0.96814870    -0.02000
C673        C  0.50659265  0.51913901  0.96921378     0.07900
C674        C  0.53412320  0.53338403  0.96892186    -0.02200
Br675      Br  0.58696878  0.52674661  0.96993212    -0.00800
Br676      Br  0.56045463  0.57193917  0.96999696    -0.00900
Br677      Br  0.43030621  0.50449168  0.96854596    -0.00800
Br678      Br  0.40408285  0.54965286  0.96697580    -0.00800
C679        C  0.49723258  0.46398434  0.02285582    -0.01900
C680        C  0.52893014  0.47243912  0.01513796     0.07700
C681        C  0.55849713  0.47929398  0.02545594    -0.02000
C682        C  0.55574493  0.47832145  0.04343330    -0.02000
C683        C  0.52328982  0.47062814  0.05115878     0.07900
C684        C  0.49433963  0.46315751  0.04085820    -0.02200
Br685      Br  0.44934096  0.45330202  0.05148314    -0.00800
Br686      Br  0.45642956  0.45498836  0.00873584    -0.00900
Br687      Br  0.59526842  0.48862777  0.05758068    -0.00800
Br688      Br  0.60166937  0.49109110  0.01489691    -0.00800
C689        C  0.50048073  0.43467861  0.11691868    -0.01900
C690        C  0.52805713  0.44791455  0.11215582     0.07700
C691        C  0.56450466  0.44685981  0.11939418    -0.02000
C692        C  0.57328625  0.43270121  0.13145302    -0.02000
C693        C  0.54559528  0.41954136  0.13634771     0.07900
C694        C  0.50920516  0.42052641  0.12897975    -0.02200
Br695      Br  0.47159784  0.40210664  0.13500656    -0.00800
Br696      Br  0.45073122  0.43601166  0.10685642    -0.00900
Br697      Br  0.62286883  0.43173720  0.14170282    -0.00800
Br698      Br  0.60224806  0.46495934  0.11278140    -0.00800
C699        C  0.41322757  0.59825589  0.04131292    -0.01900
C700        C  0.44600073  0.59992942  0.05145588     0.07700
C701        C  0.48101865  0.60366303  0.04358824    -0.02000
C702        C  0.48365603  0.60459248  0.02559083    -0.02000
C703        C  0.45133273  0.60166227  0.01539077     0.07900
C704        C  0.41589249  0.59909089  0.02329050    -0.02200
Br705      Br  0.37156775  0.59531841  0.00934741    -0.00800
Br706      Br  0.36520425  0.59356113  0.05215716    -0.00900
Br707      Br  0.53186961  0.60893414  0.01478456    -0.00800
Br708      Br  0.52572749  0.60631044  0.05752387    -0.00800
C709        C  0.50021696  0.54659534  0.10010278    -0.01900
C710        C  0.46238605  0.55150284  0.09654385     0.07700
C711        C  0.43511478  0.53730876  0.09454095    -0.02000
C712        C  0.44606994  0.51829105  0.09508408    -0.02000
C713        C  0.48436645  0.51342485  0.09741528     0.07900
C714        C  0.51118522  0.52757269  0.10054704    -0.02200
Br715      Br  0.56357244  0.52087106  0.10380936    -0.00800
Br716      Br  0.53763914  0.56601123  0.10260647    -0.00900
Br717      Br  0.40926346  0.49881837  0.09137805    -0.00800
Br718      Br  0.38332787  0.54402361  0.08969966    -0.00800
C719        C  0.39315831  0.61911440  0.12046801    -0.01900
C720        C  0.42952352  0.61773435  0.11323981     0.07700
C721        C  0.45786418  0.63041376  0.11826927    -0.02000
C722        C  0.44948152  0.64490110  0.12996357    -0.02000
C723        C  0.41272440  0.64663544  0.13687484     0.07900
C724        C  0.38477904  0.63346829  0.13227884    -0.02200
Br725      Br  0.33535684  0.63449082  0.14269677    -0.00800
Br726      Br  0.35476904  0.60129829  0.11406456    -0.00900
Br727      Br  0.48806830  0.66282898  0.13584286    -0.00800
Br728      Br  0.50837639  0.62763109  0.10928168    -0.00800
C729        C  0.99904902  0.15199602  0.93335812    -0.01900
C730        C  0.96159242  0.15434964  0.92749521     0.07700
C731        C  0.93232445  0.14355522  0.93476791    -0.02000
C732        C  0.94042512  0.13061477  0.94795523    -0.02000
C733        C  0.97782979  0.12832331  0.95381197     0.07900
C734        C  0.00709768  0.13901831  0.94651855    -0.02200
Br735      Br  0.05818832  0.13590630  0.95476552    -0.00800
Br736      Br  0.03932168  0.16681698  0.92368975    -0.00900
Br737      Br  0.90047856  0.11564282  0.95769999    -0.00800
Br738      Br  0.88148021  0.14564705  0.92596499    -0.00800
C739        C  0.98212646  0.20532839  0.78030417    -0.01900
C740        C  0.00285866  0.20555611  0.79576228     0.07700
C741        C  0.04268095  0.20450121  0.79525796    -0.02000
C742        C  0.06161146  0.20336961  0.77941860    -0.02000
C743        C  0.04093436  0.20341439  0.76394115     0.07900
C744        C  0.00109487  0.20430572  0.76444052    -0.02200
Br745      Br  0.97236162  0.20502891  0.74340263    -0.00800
Br746      Br  0.92757953  0.20585632  0.78083019    -0.00900
Br747      Br  0.11603469  0.20118860  0.77903951    -0.00800
Br748      Br  0.07174809  0.20553587  0.81620224    -0.00800
C749        C  0.26143615  0.30298088  0.67919751    -0.01900
C750        C  0.30014019  0.29815634  0.67914218     0.07700
C751        C  0.31105732  0.27924176  0.67710338    -0.02000
C752        C  0.28350831  0.26505319  0.67654095    -0.02000
C753        C  0.24491278  0.26977498  0.67786354     0.07900
C754        C  0.23389612  0.28879287  0.67849424    -0.02200
Br755      Br  0.18090715  0.29533880  0.67828394    -0.00800
Br756      Br  0.24592729  0.32887581  0.68121326    -0.00900
Br757      Br  0.29885205  0.23911218  0.67488358    -0.00800
Br758      Br  0.36384983  0.27282068  0.67483048    -0.00800
C759        C  0.58867555  0.45268202  0.94870714    -0.01900
C760        C  0.55057628  0.45404816  0.95376959     0.07700
C761        C  0.52355973  0.44206610  0.94639412    -0.02000
C762        C  0.53446362  0.42893837  0.93380541    -0.02000
C763        C  0.57257409  0.42777311  0.92843616     0.07900
C764        C  0.59959383  0.43979708  0.93592701    -0.02200
Br765      Br  0.65125865  0.43953872  0.92802412    -0.00800
Br766      Br  0.62593328  0.46841355  0.95952732    -0.00900
Br767      Br  0.49721295  0.41207116  0.92452230    -0.00800
Br768      Br  0.47164665  0.44351342  0.95386094    -0.00800
C769        C  0.78957844  0.31394142  0.88293091    -0.01900
C770        C  0.75182416  0.30802938  0.88476420     0.07700
C771        C  0.74385998  0.28876586  0.88664792    -0.02000
C772        C  0.77322129  0.27538904  0.88583059    -0.02000
C773        C  0.81088657  0.28123862  0.88329764     0.07900
C774        C  0.81905058  0.30058101  0.88223796    -0.02200
Br775      Br  0.87069812  0.30878838  0.87991609    -0.00800
Br776      Br  0.80071907  0.34029643  0.88046945    -0.00900
Br777      Br  0.76118112  0.24900055  0.88693893    -0.00800
Br778      Br  0.69246670  0.28071854  0.89028065    -0.00800
C779        C  0.54646041  0.36648005  0.76696594    -0.01900
C780        C  0.50693890  0.36444994  0.76529909     0.07700
C781        C  0.48428164  0.36385451  0.78021332    -0.02000
C782        C  0.50105993  0.36483852  0.79659490    -0.02000
C783        C  0.54051914  0.36695920  0.79823398     0.07900
C784        C  0.56308194  0.36798389  0.78333762    -0.02200
Br785      Br  0.61680109  0.37218644  0.78526125    -0.00800
Br786      Br  0.57840108  0.36624356  0.74689543    -0.00900
Br787      Br  0.46994429  0.36234456  0.81679915    -0.00800
Br788      Br  0.42993514  0.36256306  0.77835898    -0.00800
C789        C  0.09509925  0.12484005  0.61049893    -0.01900
C790        C  0.05642478  0.12042663  0.60911720     0.07700
C791        C  0.03018688  0.12892409  0.62026431    -0.02000
C792        C  0.04249192  0.14174044  0.63277581    -0.02000
C793        C  0.08138026  0.14593563  0.63445059     0.07900
C794        C  0.10759329  0.13751461  0.62311447    -0.02200
Br795      Br  0.16100770  0.14244325  0.62522839    -0.00800
Br796      Br  0.13123250  0.11285307  0.59550021    -0.00900
Br797      Br  0.00527309  0.15436877  0.64676466    -0.00800
Br798      Br  0.97702680  0.12337490  0.61804140    -0.00800
C799        C  0.01794466  0.02330930  0.59339347    -0.01900
C800        C  0.97879842  0.01986643  0.59390797     0.07700
C801        C  0.95324048  0.03495872  0.59558738    -0.02000
C802        C  0.96665789  0.05353798  0.59537914    -0.02000
C803        C  0.00561439  0.05699877  0.59352675     0.07900
C804        C  0.03135113  0.04187117  0.59318591    -0.02200
Br805      Br  0.08476764  0.04668596  0.59119300    -0.00800
Br806      Br  0.05290347  0.00254078  0.59185242    -0.00900
Br807      Br  0.93167344  0.07432873  0.59641347    -0.00800
Br808      Br  0.89976501  0.03011360  0.59705645    -0.00800
C809        C  0.06257498  0.09389575  0.51999307    -0.01900
C810        C  0.03097547  0.10171246  0.51155587     0.07700
C811        C  0.00288689  0.11108123  0.52109161    -0.02000
C812        C  0.00489766  0.11131883  0.53913180    -0.02000
C813        C  0.03526446  0.10240761  0.54760254     0.07900
C814        C  0.06484301  0.09436430  0.53798788    -0.02200
Br815      Br  0.10726314  0.08292591  0.54962042    -0.00800
Br816      Br  0.10140981  0.08140312  0.50689017    -0.00900
Br817      Br  0.96453738  0.12236381  0.55233732    -0.00800
Br818      Br  0.96020207  0.12220867  0.50944749    -0.00800
C819        C  0.07450620  0.12017542  0.44369234    -0.01900
C820        C  0.03670422  0.11824857  0.44903084     0.07700
C821        C  0.00821177  0.12928857  0.44135372    -0.02000
C822        C  0.01766758  0.14272260  0.42879280    -0.02000
C823        C  0.05563967  0.14491036  0.42363793     0.07900
C824        C  0.08398362  0.13346793  0.43101586    -0.02200
Br825      Br  0.13563869  0.13547350  0.42332363    -0.00800
Br826      Br  0.11305911  0.10416749  0.45347902    -0.00900
Br827      Br  0.97875748  0.15877748  0.41936545    -0.00800
Br828      Br  0.95624609  0.12604357  0.44821377    -0.00800
C829        C  0.97130916  0.96732712  0.52244902    -0.01900
C830        C  0.93666237  0.97151898  0.51436380     0.07700
C831        C  0.90417279  0.97485411  0.52434531    -0.02000
C832        C  0.90697873  0.97544321  0.54234710    -0.02000
C833        C  0.94234570  0.97287758  0.55033854     0.07900
C834        C  0.97422728  0.96814293  0.54042223    -0.02200
Br835      Br  0.02234066  0.96397441  0.55146562    -0.00800
Br836      Br  0.01519231  0.96161817  0.50873265    -0.00900
Br837      Br  0.86309055  0.98115728  0.55604590    -0.00800
Br838      Br  0.85657117  0.98005258  0.51322692    -0.00800
C839        C  0.00129636  0.02173713  0.46830718    -0.01900
C840        C  0.96213969  0.01840547  0.46922944     0.07700
C841        C  0.93654586  0.03360152  0.46877355    -0.02000
C842        C  0.95018728  0.05213361  0.46826337    -0.02000
C843        C  0.98939134  0.05545522  0.46854126     0.07900
C844        C  0.01492599  0.04024977  0.46809711    -0.02200
Br845      Br  0.06860362  0.04487446  0.46846568    -0.00800
Br846      Br  0.03620858  0.00086811  0.46856028    -0.00900
Br847      Br  0.91542129  0.07305203  0.46833664    -0.00800
Br848      Br  0.88298209  0.02897495  0.47020170    -0.00800
C849        C  0.94488087  0.94339304  0.44473931    -0.01900
C850        C  0.91667819  0.95441407  0.45255206     0.07700
C851        C  0.87863942  0.95231729  0.44762822    -0.02000
C852        C  0.86876691  0.93919407  0.43491520    -0.02000
C853        C  0.89697692  0.92806405  0.42710803     0.07900
C854        C  0.93508298  0.93015650  0.43214998    -0.02200
Br855      Br  0.97390399  0.91428793  0.42247793    -0.00800
Br856      Br  0.99702399  0.94646193  0.45138970    -0.00900
Br857      Br  0.81679819  0.93705859  0.42774795    -0.00800
Br858      Br  0.84029520  0.96775063  0.45818696    -0.00800
C859        C  0.42432362  0.44920197  0.61784150    -0.01900
C860        C  0.46031767  0.45175582  0.61055735     0.07700
C861        C  0.49089748  0.44052378  0.61598457    -0.02000
C862        C  0.48566056  0.42688032  0.62886309    -0.02000
C863        C  0.44971397  0.42444805  0.63638337     0.07900
C864        C  0.41899886  0.43562833  0.63077341    -0.02200
Br865      Br  0.36988612  0.43304421  0.64127175    -0.00800
Br866      Br  0.38238953  0.46437962  0.61001021    -0.00900
Br867      Br  0.52747123  0.41099782  0.63555947    -0.00800
Br868      Br  0.53988765  0.44381619  0.60555358    -0.00800
C869        C  0.47238700  0.55055367  0.59932583    -0.01900
C870        C  0.50919077  0.55668639  0.59544763     0.07700
C871        C  0.53856450  0.54350373  0.59332602    -0.02000
C872        C  0.53046194  0.52419940  0.59364272    -0.02000
C873        C  0.49289781  0.51813436  0.59568282     0.07900
C874        C  0.46416389  0.53125352  0.59934366    -0.02200
Br875      Br  0.41300651  0.52283256  0.60282046    -0.00800
Br876      Br  0.43273292  0.56873162  0.60307655    -0.00900
Br877      Br  0.57020938  0.50598821  0.59023665    -0.00800
Br878      Br  0.58917368  0.55200250  0.58855363    -0.00800
C879        C  0.42838274  0.47655475  0.52295905    -0.01900
C880        C  0.46124468  0.47348431  0.51315026     0.07700
C881        C  0.49578553  0.46947277  0.52140761    -0.02000
C882        C  0.49775251  0.46927517  0.53944040    -0.02000
C883        C  0.46525793  0.47323747  0.54923642     0.07900
C884        C  0.43041105  0.47649902  0.54098516    -0.02200
Br885      Br  0.38613509  0.48225768  0.55442193    -0.00800
Br886      Br  0.38121947  0.48220701  0.51160061    -0.00900
Br887      Br  0.54535305  0.46472254  0.55081785    -0.00800
Br888      Br  0.54078562  0.46546122  0.50794667    -0.00800
C889        C  0.46491324  0.44140684  0.44589968    -0.01900
C890        C  0.43784552  0.45414787  0.45221017     0.07700
C891        C  0.40045638  0.45361755  0.44603637    -0.02000
C892        C  0.39023308  0.44052382  0.43338489    -0.02000
C893        C  0.41748434  0.42793449  0.42682209     0.07900
C894        C  0.45476572  0.42826802  0.43329383    -0.02200
Br895      Br  0.49170079  0.41016588  0.42556562    -0.00800
Br896      Br  0.51609209  0.44219429  0.45442050    -0.00900
Br897      Br  0.33919112  0.44035992  0.42467304    -0.00800
Br898      Br  0.36332121  0.47088991  0.45500926    -0.00800
C899        C  0.47662297  0.60439536  0.54123372    -0.01900
C900        C  0.51264260  0.60381121  0.54892513     0.07700
C901        C  0.54535271  0.60465699  0.53866751    -0.02000
C902        C  0.54205020  0.60524587  0.52069860    -0.02000
C903        C  0.50606241  0.60466124  0.51299336     0.07900
C904        C  0.47333738  0.60472950  0.52326866    -0.02200
Br905      Br  0.42410944  0.60435020  0.51262529    -0.00800
Br906      Br  0.43190054  0.60380814  0.55536821    -0.00900
Br907      Br  0.58679224  0.60544474  0.50657676    -0.00800
Br908      Br  0.59462566  0.60330267  0.54922057    -0.00800
C909        C  0.51842406  0.54616071  0.46648416    -0.01900
C910        C  0.48786723  0.55888464  0.46641043     0.07700
C911        C  0.45064505  0.55222736  0.46475971    -0.02000
C912        C  0.44375895  0.53279594  0.46477317    -0.02000
C913        C  0.47413470  0.52008242  0.46651933     0.07900
C914        C  0.51154770  0.52674131  0.46653368    -0.02200
Br915      Br  0.55309428  0.50917405  0.46777529    -0.00800
Br916      Br  0.56946719  0.55543648  0.46782194    -0.00900
Br917      Br  0.39260763  0.52361663  0.46397244    -0.00800
Br918      Br  0.40904229  0.56979583  0.46407769    -0.00800
C919        C  0.54563598  0.63003132  0.44538554    -0.01900
C920        C  0.50936054  0.62662312  0.45204152     0.07700
C921        C  0.47856916  0.63783690  0.44684219    -0.02000
C922        C  0.48413509  0.65265016  0.43511504    -0.02000
C923        C  0.52061957  0.65628438  0.42858819     0.07900
C924        C  0.55133625  0.64484068  0.43370880    -0.02200
Br925      Br  0.60104233  0.64872334  0.42417675    -0.00800
Br926      Br  0.58742999  0.61418042  0.45222515    -0.00900
Br927      Br  0.44193027  0.66831653  0.42851448    -0.00800
Br928      Br  0.42880453  0.63270122  0.45578138    -0.00800
C929        C  0.89262343  0.94042943  0.63189877    -0.01900
C930        C  0.92211310  0.92908890  0.63840981     0.07700
C931        C  0.95917426  0.93127835  0.63205568    -0.02000
C932        C  0.96666256  0.94475567  0.61927498    -0.02000
C933        C  0.93708004  0.95587797  0.61263150     0.07900
C934        C  0.90006697  0.95369709  0.61892320    -0.02200
Br935      Br  0.85969887  0.96898196  0.60970429    -0.00800
Br936      Br  0.84231262  0.93829686  0.64119167    -0.00900
Br937      Br  0.01733423  0.94785671  0.61060585    -0.00800
Br938      Br  0.99945000  0.91524090  0.64024516    -0.00800
C939        C  0.05505403  0.94653773  0.91864679    -0.01900
C940        C  0.07857743  0.93109476  0.92295583     0.07700
C941        C  0.09390219  0.92998273  0.93969945    -0.02000
C942        C  0.08662531  0.94430125  0.95165747    -0.02000
C943        C  0.06009325  0.95862160  0.94790764     0.07900
C944        C  0.04412497  0.95954959  0.93128920    -0.02200
Br945      Br  0.00551006  0.97785267  0.92571979    -0.00800
Br946      Br  0.03950360  0.95101857  0.89519550    -0.00900
Br947      Br  0.11514134  0.94472276  0.97280662    -0.00800
Br948      Br  0.12241451  0.90826609  0.94721359    -0.00800
C949        C  0.01811817  0.87407811  0.76835476    -0.01900
C950        C  0.97980619  0.86898711  0.76646061     0.07700
C951        C  0.95832535  0.86444795  0.78117107    -0.02000
C952        C  0.97555997  0.86390461  0.79745715    -0.02000
C953        C  0.01406630  0.86848510  0.79924658     0.07900
C954        C  0.03489225  0.87421444  0.78473522    -0.02200
Br955      Br  0.08612897  0.88301068  0.78735530    -0.00800
Br956      Br  0.04875071  0.87969653  0.74851642    -0.00900
Br957      Br  0.94667684  0.85602638  0.81718572    -0.00800
Br958      Br  0.90480268  0.85965424  0.77925426    -0.00800
C959        C  0.40506414  0.63582141  0.93083934    -0.01900
C960        C  0.43102787  0.65052445  0.92834844     0.07700
C961        C  0.46365136  0.65149560  0.93866634    -0.02000
C962        C  0.47038359  0.63779011  0.95139441    -0.02000
C963        C  0.44455418  0.62299142  0.95383478     0.07900
C964        C  0.41175205  0.62210285  0.94357937    -0.02200
Br965      Br  0.37562843  0.60228105  0.94725192    -0.00800
Br966      Br  0.36046909  0.63447147  0.91668081    -0.00900
Br967      Br  0.51555656  0.63898343  0.96520572    -0.00800
Br968      Br  0.49939492  0.67151332  0.93514233    -0.00800
C969        C  0.28734202  0.81689604  0.87447551    -0.01900
C970        C  0.24899956  0.81252820  0.87708739     0.07700
C971        C  0.23876984  0.79422564  0.88213811    -0.02000
C972        C  0.26651551  0.78007709  0.88375714    -0.02000
C973        C  0.30491767  0.78421388  0.88045907     0.07900
C974        C  0.31521436  0.80283431  0.87619017    -0.02200
Br975      Br  0.36766322  0.80940489  0.87297436    -0.00800
Br976      Br  0.30158680  0.84198418  0.86767923    -0.00900
Br977      Br  0.25080200  0.75485377  0.88931440    -0.00800
Br978      Br  0.18652099  0.78858808  0.88706493    -0.00800
C979        C  0.52051638  0.64836610  0.62893840    -0.01900
C980        C  0.55865689  0.65087934  0.63377064     0.07700
C981        C  0.58714355  0.63985087  0.62602107    -0.02000
C982        C  0.57749030  0.62640907  0.61360882    -0.02000
C983        C  0.53938031  0.62359379  0.60920699     0.07900
C984        C  0.51092099  0.63460308  0.61681083    -0.02200
Br985      Br  0.45874500  0.63062941  0.61062101    -0.00800
Br986      Br  0.48136252  0.66425393  0.63829173    -0.00900
Br987      Br  0.61637754  0.61173662  0.60254771    -0.00800
Br988      Br  0.63921564  0.64219014  0.63304871    -0.00800
C989        C  0.71904245  0.79035039  0.67795608    -0.01900
C990        C  0.72669019  0.77116821  0.68064554     0.07700
C991        C  0.76420129  0.76496964  0.68284239    -0.02000
C992        C  0.79407701  0.77795609  0.68243218    -0.02000
C993        C  0.78648025  0.79730310  0.68020199     0.07900
C994        C  0.74874876  0.80343741  0.67785784    -0.02200
Br995      Br  0.73680804  0.82982887  0.67583089    -0.00800
Br996      Br  0.66755994  0.79867207  0.67460548    -0.00900
Br997      Br  0.84545928  0.76904597  0.68459427    -0.00800
Br998      Br  0.77439836  0.73876898  0.68735822    -0.00800
C999        C  0.54396089  0.69898238  0.77927025    -0.01900
C1000       C  0.52214317  0.70461154  0.76504577     0.07700
C1001       C  0.48431560  0.71019979  0.76730255    -0.02000
C1002       C  0.46847292  0.71055801  0.78383830    -0.02000
C1003       C  0.49059062  0.70542023  0.79823293     0.07900
C1004       C  0.52829117  0.69939225  0.79584920    -0.02200
Br1005     Br  0.55953361  0.69280311  0.81527125    -0.00800
Br1006     Br  0.59547272  0.69074352  0.77595673    -0.00900
Br1007     Br  0.41605297  0.71762248  0.78651421    -0.00800
Br1008     Br  0.45467005  0.71806400  0.74774059    -0.00800
loop_ 
_geom_bond_atom_site_label_1 
_geom_bond_atom_site_label_2 
_geom_bond_distance 
_geom_bond_site_symmetry_2 
_ccdc_geom_bond_type 
N1            N2   1.322       .  A
N1            C5   1.343       .  A
N1           Cu9   2.065       .  S
N2            C3   1.346       .  A
N2           Cu8   2.072       .  S
C3            C4   1.382       .  A
C3            H6   1.082       .  S
C4            C5   1.380       .  A
C4         C1000   1.472       .  S
C5            H7   1.082       .  S
Cu8          N11   2.072       .  S
Cu9          N19   2.065       .  S
Cu10         N12   2.080       .  S
Cu10         N18   2.079       .  S
N11          N12   1.323       .  A
N11          C15   1.344       .  A
N12          C13   1.346       .  A
C13          C14   1.385       .  A
C13          H16   1.082       .  S
C14          C15   1.382       .  A
C14         C980   1.481       .  S
C15          H17   1.082       .  S
N18          N19   1.322       .  A
N18          C22   1.347       .  A
N19          C20   1.343       .  A
C20          C21   1.380       .  A
C20          H23   1.082       .  S
C21          C22   1.384       .  A
C21         C990   1.475       .  S
C22          H24   1.082       .  S
N25          N26   1.325       .  A
N25          C29   1.348       .  A
N25         Cu33   2.092       .  S
N26          C27   1.347       .  A
N26         Cu32   2.083       .  S
C27          C28   1.382       .  A
C27          H30   1.082       .  S
C28          C29   1.383       .  A
C28         C960   1.480       .  S
C29          H31   1.082       .  S
Cu32         N35   2.082       .  S
Cu33         N43   2.090       .  S
Cu34         N36   2.060       .  S
Cu34         N42   2.061       .  S
N35          N36   1.321       .  A
N35          C39   1.347       .  A
N36          C37   1.342       .  A
C37          C38   1.381       .  A
C37          H40   1.082       .  S
C38          C39   1.387       .  A
C38        C1003   1.481       .  S
C39          H41   1.082       .  S
N42          N43   1.321       .  A
N42          C46   1.342       .  A
N43          C44   1.349       .  A
C44          C45   1.391       .  A
C44          H47   1.081       .  S
C45          C46   1.383       .  A
C45         C973   1.488       .  S
C46          H48   1.082       .  S
N49          N50   1.322       .  A
N49          C53   1.344       .  A
N49         Cu57   2.074       .  S
N50          C51   1.347       .  A
N50         Cu56   2.076       .  S
C51          C52   1.385       .  A
C51          H54   1.082       .  S
C52          C53   1.383       .  A
C52         C953   1.482       .  S
C53          H55   1.082       .  S
Cu56         N59   2.075       .  S
Cu57         N67   2.074       .  S
Cu58         N60   2.077       .  S
Cu58         N66   2.078       .  S
N59          N60   1.321       .  A
N59          C63   1.343       .  A
N60          C61   1.345       .  A
C61          C62   1.388       .  A
C61          H64   1.081       .  S
C62          C63   1.387       .  A
C62         C940   1.492       .  S
C63          H65   1.081       .  S
N66          N67   1.323       .  A
N66          C70   1.347       .  A
N67          C68   1.344       .  A
C68          C69   1.383       .  A
C68          H71   1.082       .  S
C69          C70   1.384       .  A
C69         C970   1.480       .  S
C70          H72   1.082       .  S
N73          N74   1.321       .  A
N73          C77   1.344       .  A
N73         Cu81   2.072       .  S
N74          C75   1.346       .  A
N74         Cu80   2.077       .  S
C75          C76   1.386       .  A
C75          H78   1.082       .  S
C76          C77   1.384       .  A
C76         C950   1.485       .  S
C77          H79   1.082       .  S
Cu80         N83   2.077       .  S
Cu81         N91   2.072       .  S
Cu82         N84   2.079       .  S
Cu82         N90   2.078       .  S
N83          N84   1.324       .  A
N83          C87   1.345       .  A
N84          C85   1.346       .  A
C85          C86   1.383       .  A
C85          H88   1.082       .  S
C86          C87   1.382       .  A
C86         C930   1.478       .  S
C87          H89   1.082       .  S
N90          N91   1.322       .  A
N90          C94   1.346       .  A
N91          C92   1.344       .  A
C92          C93   1.383       .  A
C92          H95   1.083       .  S
C93          C94   1.386       .  A
C93         C993   1.484       .  S
C94          H96   1.082       .  S
C97          C98   1.405       .  A
C97         C102   1.405       .  A
C97         C920   1.475       .  S
C98          C99   1.401       .  A
C98         H103   1.084       .  S
C99         C100   1.399       .  A
C99         C910   1.474       .  S
C100        C101   1.398       .  A
C100        H104   1.085       .  S
C101        C102   1.400       .  A
C101        C903   1.475       .  S
C102        H105   1.084       .  S
C106        C107   1.405       .  A
C106        C111   1.407       .  A
C106        C890   1.478       .  S
C107        C108   1.400       .  A
C107        H112   1.084       .  S
C108        C109   1.399       .  A
C108        C913   1.475       .  S
C109        C110   1.398       .  A
C109        H113   1.085       .  S
C110        C111   1.403       .  A
C110        C880   1.478       .  S
C111        H114   1.084       .  S
C115        C116   1.406       .  A
C115        C120   1.405       .  A
C115        C983   1.475       .  S
C116        C117   1.401       .  A
C116        H121   1.084       .  S
C117        C118   1.399       .  A
C117        C870   1.474       .  S
C118        C119   1.398       .  A
C118        H122   1.085       .  S
C119        C120   1.401       .  A
C119        C900   1.475       .  S
C120        H123   1.084       .  S
C124        C125   1.406       .  A
C124        C129   1.405       .  A
C124        C860   1.477       .  S
C125        C126   1.403       .  A
C125        H130   1.084       .  S
C126        C127   1.399       .  A
C126        C883   1.478       .  S
C127        C128   1.400       .  A
C127        H131   1.085       .  S
C128        C129   1.400       .  A
C128        C873   1.476       .  S
C129        H132   1.084       .  S
C133        C134   1.407       .  A
C133        C138   1.408       .  A
C133        C850   1.480       .  S
C134        C135   1.402       .  A
C134        H139   1.084       .  S
C135        C136   1.398       .  A
C135        C840   1.477   1_565  S
C136        C137   1.398       .  A
C136        H140   1.085   1_565  S
C137        C138   1.403       .  A
C137        C830   1.478       .  S
C138        H141   1.084       .  S
C142        C143   1.406       .  A
C142        C147   1.407       .  A
C142        C820   1.479       .  S
C143        C144   1.402       .  A
C143        H148   1.084       .  S
C144        C145   1.399       .  A
C144        C843   1.476   1_455  S
C145        C146   1.399       .  A
C145        H149   1.085       .  S
C146        C147   1.402       .  A
C146        C810   1.478       .  S
C147        H150   1.084       .  S
C151        C152   1.405       .  A
C151        C156   1.405       .  A
C151        C933   1.476       .  S
C152        C153   1.401       .  A
C152        H157   1.084       .  S
C153        C154   1.400       .  A
C153        C833   1.478       .  S
C154        C155   1.401   1_565  A
C154        H158   1.085   1_565  S
C155        C156   1.402   1_545  A
C155        C800   1.477       .  S
C156        H159   1.084       .  S
C160        C161   1.408       .  A
C160        C165   1.408       .  A
C160        C790   1.484       .  S
C161        C162   1.402       .  A
C161        H166   1.084       .  S
C162        C163   1.398       .  A
C162        C803   1.477       .  S
C163        C164   1.398       .  A
C163        H167   1.085       .  S
C164        C165   1.403       .  A
C164        C813   1.478       .  S
C165        H168   1.084       .  S
N169        N170   1.325       .  A
N169        C173   1.348       .  A
N169       Cu177   2.094       .  S
N170        C171   1.348       .  A
N170       Cu176   2.090       .  S
C171        C172   1.386       .  A
C171        H174   1.082       .  S
C172        C173   1.387       .  A
C172        C763   1.490       .  S
C173        H175   1.082       .  S
Cu176       N179   2.089       .  S
Cu177       N187   2.092       .  S
Cu178       N180   2.071       .  S
Cu178       N186   2.071       .  S
N179        N180   1.322       .  A
N179        C183   1.349       .  A
N180        C181   1.345       .  A
C181        C182   1.383       .  A
C181        H184   1.082       .  S
C182        C183   1.388       .  A
C182        C783   1.486       .  S
C183        H185   1.082       .  S
N186        N187   1.323       .  A
N186        C190   1.343       .  A
N187        C188   1.350       .  A
C188        C189   1.387       .  A
C188        H191   1.082       .  S
C189        C190   1.380       .  A
C189        C770   1.481       .  S
C190        H192   1.082       .  S
N193        N194   1.323       .  A
N193        C197   1.347       .  A
N193       Cu201   2.084       .  S
N194        C195   1.347       .  A
N194       Cu200   2.084       .  S
C195        C196   1.386       .  A
C195        H198   1.082       .  S
C196        C197   1.386       .  A
C196        C780   1.488       .  S
C197        H199   1.082       .  S
Cu200       N203   2.084       .  S
Cu201       N211   2.084       .  S
Cu202       N204   2.067       .  S
Cu202       N210   2.067       .  S
N203        N204   1.322       .  A
N203        C207   1.347       .  A
N204        C205   1.344       .  A
C205        C206   1.381       .  A
C205        H208   1.082       .  S
C206        C207   1.386       .  A
C206        C863   1.481       .  S
C207        H209   1.082       .  S
N210        N211   1.322       .  A
N210        C214   1.346       .  A
N211        C212   1.345       .  A
C212        C213   1.385       .  A
C212        H215   1.082       .  S
C213        C214   1.382       .  A
C213        C750   1.479       .  S
C214        H216   1.082       .  S
N217        N218   1.323       .  A
N217        C221   1.345       .  A
N217       Cu225   2.077       .  S
N218        C219   1.345       .  A
N218       Cu224   2.072       .  S
C219        C220   1.382       .  A
C219        H222   1.082       .  S
C220        C221   1.383       .  A
C220        C730   1.477       .  S
C221        H223   1.082       .  S
Cu224       N227   2.072       .  S
Cu225       N235   2.077       .  S
Cu226       N228   2.082       .  S
Cu226       N234   2.082       .  S
N227        N228   1.323       .  A
N227        C231   1.345       .  A
N228        C229   1.346       .  A
C229        C230   1.385       .  A
C229        H232   1.082       .  S
C230        C231   1.383       .  A
C230        C740   1.482   1_655  S
C231        H233   1.082   1_655  S
N234        N235   1.323       .  A
N234        C238   1.346       .  A
N235        C236   1.346       .  A
C236        C237   1.384       .  A
C236        H239   1.082       .  S
C237        C238   1.385       .  A
C237        C773   1.483       .  S
C238        H240   1.083       .  S
N241        N242   1.322       .  A
N241        C245   1.344       .  A
N241       Cu249   2.070       .  S
N242        C243   1.348       .  A
N242       Cu248   2.082       .  S
C243        C244   1.386       .  A
C243        H246   1.082       .  S
C244        C245   1.383       .  A
C244        C743   1.482       .  S
C245        H247   1.082       .  S
Cu248       N251   2.082       .  S
Cu249       N259   2.070       .  S
Cu250       N252   2.081       .  S
Cu250       N258   2.081       .  S
N251        N252   1.323       .  A
N251        C255   1.345       .  A
N252        C253   1.347       .  A
C253        C254   1.386       .  A
C253        H256   1.082       .  S
C254        C255   1.386       .  A
C254        C793   1.489       .  S
C255        H257   1.082       .  S
N258        N259   1.323       .  A
N258        C262   1.348       .  A
N259        C260   1.343       .  A
C260        C261   1.381       .  A
C260        H263   1.083       .  S
C261        C262   1.385       .  A
C261        C753   1.478       .  S
C262        H264   1.082       .  S
C265        C266   1.408       .  A
C265        C270   1.408       .  A
C265        C720   1.483       .  S
C266        C267   1.404       .  A
C266        H271   1.083       .  S
C267        C268   1.400       .  A
C267        C710   1.480       .  S
C268        C269   1.400       .  A
C268        H272   1.085       .  S
C269        C270   1.403       .  A
C269        C700   1.481       .  S
C270        H273   1.084       .  S
C274        C275   1.409       .  A
C274        C279   1.408       .  A
C274        C690   1.483       .  S
C275        C276   1.405       .  A
C275        H280   1.083       .  S
C276        C277   1.398       .  A
C276        C713   1.479       .  S
C277        C278   1.397       .  A
C277        H281   1.085       .  S
C278        C279   1.403       .  A
C278        C683   1.478       .  S
C279        H282   1.084       .  S
C283        C284   1.409       .  A
C283        C288   1.409       .  A
C283        C963   1.485       .  S
C284        C285   1.404       .  A
C284        H289   1.084       .  S
C285        C286   1.400       .  A
C285        C703   1.482   1_556  S
C286        C287   1.400       .  A
C286        H290   1.085   1_556  S
C287        C288   1.403       .  A
C287        C670   1.481       .  S
C288        H291   1.084       .  S
C292        C293   1.407       .  A
C292        C297   1.409       .  A
C292        C760   1.484       .  S
C293        C294   1.404       .  A
C293        H298   1.084       .  S
C294        C295   1.399       .  A
C294        C680   1.479   1_556  S
C295        C296   1.399       .  A
C295        H299   1.085   1_556  S
C296        C297   1.405       .  A
C296        C673   1.481       .  S
C297        H300   1.083       .  S
N301        N302   1.321       .  A
N301        C305   1.344       .  A
N301       Cu309   2.070       .  S
N302        C303   1.346       .  A
N302       Cu308   2.075       .  S
C303        C304   1.386       .  A
C303        H306   1.082       .  S
C304        C305   1.384       .  A
C304        C660   1.483       .  S
C305        H307   1.082       .  S
Cu308       N311   2.075       .  S
Cu309       N319   2.070       .  S
Cu310       N312   2.080       .  S
Cu310       N318   2.080       .  S
N311        N312   1.323       .  A
N311        C315   1.345       .  A
N312        C313   1.346       .  A
C313        C314   1.385       .  A
C313        H316   1.082       .  S
C314        C315   1.382       .  A
C314        C923   1.480       .  S
C315        H317   1.082       .  S
N318        N319   1.323       .  A
N318        C322   1.347       .  A
N319        C320   1.344       .  A
C320        C321   1.380       .  A
C320        H323   1.082       .  S
C321        C322   1.384       .  A
C321        C650   1.477       .  S
C322        H324   1.082       .  S
N325        N326   1.321       .  A
N325        C329   1.345       .  A
N325       Cu333   2.069       .  S
N326        C327   1.346       .  A
N326       Cu332   2.079       .  S
C327        C328   1.386       .  A
C327        H330   1.082       .  S
C328        C329   1.383       .  A
C328        C663   1.482       .  S
C329        H331   1.082       .  S
Cu332       N335   2.080       .  S
Cu333       N343   2.069       .  S
Cu334       N336   2.093       .  S
Cu334       N342   2.093       .  S
N335        N336   1.324       .  A
N335        C339   1.346       .  A
N336        C337   1.348       .  A
C337        C338   1.387       .  A
C337        H340   1.082       .  S
C338        C339   1.383       .  A
C338        C723   1.486       .  S
C339        H341   1.082       .  S
N342        N343   1.323       .  A
N342        C346   1.350       .  A
N343        C344   1.343       .  A
C344        C345   1.379       .  A
C344        H347   1.083       .  S
C345        C346   1.387       .  A
C345        C643   1.480       .  S
C346        H348   1.082       .  S
N349        N350   1.322       .  A
N349        C353   1.344       .  A
N349       Cu357   2.068       .  S
N350        C351   1.347       .  A
N350       Cu356   2.080       .  S
C351        C352   1.385       .  A
C351        H354   1.082       .  S
C352        C353   1.381       .  A
C352        C630   1.478       .  S
C353        H355   1.082       .  S
Cu356       N359   2.080       .  S
Cu357       N367   2.068       .  S
Cu358       N360   2.086       .  S
Cu358       N366   2.085       .  S
N359        N360   1.324       .  A
N359        C363   1.345       .  A
N360        C361   1.348       .  A
C361        C362   1.386       .  A
C361        H364   1.082       .  S
C362        C363   1.383       .  A
C362        C853   1.483       .  S
C363        H365   1.082       .  S
N366        N367   1.322       .  A
N366        C370   1.346       .  A
N367        C368   1.344       .  A
C368        C369   1.382       .  A
C368        H371   1.082       .  S
C369        C370   1.387       .  A
C369        C653   1.483       .  S
C370        H372   1.082       .  S
N373        N374   1.324       .  A
N373        C377   1.347       .  A
N373       Cu381   2.086       .  S
N374        C375   1.348       .  A
N374       Cu380   2.088       .  S
C375        C376   1.384       .  A
C375        H378   1.082   1_455  S
C376        C377   1.383       .  A
C376        C620   1.482       .  S
C377        H379   1.082       .  S
Cu380       N383   2.087       .  S
Cu381       N391   2.086       .  S
Cu382       N384   2.072       .  S
Cu382       N390   2.072       .  S
N383        N384   1.322       .  A
N383        C387   1.348   1_455  A
N384        C385   1.344       .  A
C385        C386   1.383       .  A
C385        H388   1.082       .  S
C386        C387   1.387   1_455  A
C386        C633   1.484   1_455  S
C387        H389   1.082       .  S
N390        N391   1.322       .  A
N390        C394   1.345       .  A
N391        C392   1.348       .  A
C392        C393   1.387       .  A
C392        H395   1.082       .  S
C393        C394   1.383       .  A
C393        C640   1.484       .  S
C394        H396   1.083       .  S
N397        N398   1.322       .  A
N397        C401   1.343       .  A
N397       Cu405   2.064       .  S
N398        C399   1.348       .  A
N398       Cu404   2.082       .  S
C399        C400   1.386       .  A
C399        H402   1.082       .  S
C400        C401   1.381       .  A
C400        C610   1.478       .  S
C401        H403   1.082       .  S
Cu404       N407   2.083       .  S
Cu405       N415   2.065       .  S
Cu406       N408   2.078       .  S
Cu406       N414   2.078       .  S
N407        N408   1.324       .  A
N407        C411   1.345       .  A
N408        C409   1.346       .  A
C409        C410   1.383       .  A
C409        H412   1.082       .  S
C410        C411   1.384       .  A
C410        C893   1.481       .  S
C411        H413   1.082       .  S
N414        N415   1.321       .  A
N414        C418   1.347       .  A
N415        C416   1.342       .  A
C416        C417   1.381       .  A
C416        H419   1.083       .  S
C417        C418   1.387       .  A
C417        C600   1.481       .  S
C418        H420   1.082       .  S
N421        N422   1.321       .  A
N421        C425   1.344       .  A
N421       Cu429   2.064       .  S
N422        C423   1.346       .  A
N422       Cu428   2.080       .  S
C423        C424   1.385       .  A
C423        H426   1.082       .  S
C424        C425   1.382       .  A
C424        C613   1.480       .  S
C425        H427   1.082       .  S
Cu428       N431   2.081       .  S
Cu429       N439   2.064       .  S
Cu430       N432   2.089       .  S
Cu430       N438   2.088       .  S
N431        N432   1.324       .  A
N431        C435   1.345       .  A
N432        C433   1.349       .  A
C433        C434   1.385       .  A
C433        H436   1.082       .  S
C434        C435   1.382       .  A
C434        C693   1.482       .  S
C435        H437   1.082       .  S
N438        N439   1.323       .  A
N438        C442   1.348       .  A
N439        C440   1.343       .  A
C440        C441   1.379       .  A
C440        H443   1.082       .  S
C441        C442   1.386       .  A
C441        C590   1.478       .  S
C442        H444   1.081       .  S
N445        N446   1.322       .  A
N445        C449   1.346       .  A
N445       Cu453   2.078       .  S
N446        C447   1.345       .  A
N446       Cu452   2.075       .  S
C447        C448   1.386       .  A
C447        H450   1.082       .  S
C448        C449   1.387       .  A
C448        C580   1.487       .  S
C449        H451   1.082       .  S
Cu452       N455   2.075       .  S
Cu453       N463   2.078       .  S
Cu454       N456   2.076       .  S
Cu454       N462   2.076       .  S
N455        N456   1.323       .  A
N455        C459   1.345       .  A
N456        C457   1.346       .  A
C457        C458   1.384       .  A
C457        H460   1.082       .  S
C458        C459   1.383       .  A
C458        C823   1.480       .  S
C459        H461   1.082       .  S
N462        N463   1.323       .  A
N462        C466   1.346       .  A
N463        C464   1.345       .  A
C464        C465   1.383       .  A
C464        H467   1.083       .  S
C465        C466   1.383       .  A
C465        C603   1.479       .  S
C466        H468   1.082       .  S
N469        N470   1.323       .  A
N469        C473   1.344       .  A
N469       Cu477   2.075       .  S
N470        C471   1.348       .  A
N470       Cu476   2.083       .  S
C471        C472   1.386       .  A
C471        H474   1.082       .  S
C472        C473   1.383       .  A
C472        C583   1.484       .  S
C473        H475   1.082       .  S
Cu476       N479   2.081       .  S
Cu477       N487   2.074       .  S
Cu478       N480   2.069       .  S
Cu478       N486   2.070       .  S
N479        N480   1.320       .  A
N479        C483   1.345       .  A
N480        C481   1.343       .  A
C481        C482   1.387       .  A
C481        H484   1.081       .  S
C482        C483   1.390       .  A
C482        C573   1.494       .  S
C483        H485   1.081       .  S
N486        N487   1.321       .  A
N486        C490   1.346       .  A
N487        C488   1.344       .  A
C488        C489   1.385       .  A
C488        H491   1.082       .  S
C489        C490   1.384       .  A
C489        C593   1.482       .  S
C490        H492   1.082       .  S
C493        C494   1.408       .  A
C493        C498   1.408       .  A
C493        C623   1.484   1_655  S
C494        C495   1.405       .  A
C494        H499   1.084   1_655  S
C495        C496   1.398       .  A
C495        C550   1.480   1_655  S
C496        C497   1.398       .  A
C496        H500   1.085       .  S
C497        C498   1.404       .  A
C497        C560   1.481   1_565  S
C498        H501   1.084       .  S
C502        C503   1.412       .  A
C502        C507   1.409       .  A
C502        C570   1.493       .  S
C503        C504   1.404       .  A
C503        H508   1.083       .  S
C504        C505   1.397       .  A
C504        C563   1.478       .  S
C505        C506   1.396       .  A
C505        H509   1.085       .  S
C506        C507   1.399       .  A
C506        C540   1.474       .  S
C507        H510   1.084       .  S
C511        C512   1.411       .  A
C511        C516   1.409       .  A
C511        C943   1.493       .  S
C512        C513   1.401       .  A
C512        H517   1.084       .  S
C513        C514   1.397       .  A
C513        C553   1.478   1_556  S
C514        C515   1.398   1_565  A
C514        H518   1.085   1_565  S
C515        C516   1.402   1_545  A
C515        C533   1.475       .  S
C516        H519   1.083       .  S
C520        C521   1.406       .  A
C520        C525   1.404   1_655  A
C520        C733   1.476       .  S
C521        C522   1.403       .  A
C521        H526   1.084       .  S
C522        C523   1.399   1_655  A
C522        C543   1.477   1_556  S
C523        C524   1.399       .  A
C523        H527   1.085   1_556  S
C524        C525   1.400       .  A
C524        C530   1.477       .  S
C525        H528   1.084       .  S
C529        C530   1.410   1_655  A
C529        C534   1.405       .  A
C529       Br536   1.931       .  S
C530        C531   1.410       .  A
C531        C532   1.407       .  A
C531       Br538   1.929       .  S
C532        C533   1.407       .  A
C532       Br537   1.928       .  S
C533        C534   1.409   1_455  A
C534       Br535   1.930       .  S
C539        C540   1.407   1_455  A
C539        C544   1.407       .  A
C539       Br546   1.929       .  S
C540        C541   1.409       .  A
C541        C542   1.405       .  A
C541       Br548   1.930       .  S
C542        C543   1.409       .  A
C542       Br547   1.929       .  S
C543        C544   1.410   1_655  A
C544       Br545   1.928       .  S
C549        C550   1.411   1_655  A
C549        C554   1.409       .  A
C549       Br556   1.929       .  S
C550        C551   1.409       .  A
C551        C552   1.407       .  A
C551       Br558   1.930       .  S
C552        C553   1.409       .  A
C552       Br557   1.929       .  S
C553        C554   1.408   1_455  A
C554       Br555   1.929   1_554  S
C559        C560   1.411       .  A
C559        C564   1.407       .  A
C559       Br566   1.929       .  S
C560        C561   1.410       .  A
C561        C562   1.408       .  A
C561       Br568   1.929   1_655  S
C562        C563   1.409       .  A
C562       Br567   1.930   1_655  S
C563        C564   1.408       .  A
C564       Br565   1.929       .  S
C569        C570   1.414       .  A
C569        C574   1.410       .  A
C569       Br576   1.933       .  S
C570        C571   1.413       .  A
C571        C572   1.407       .  A
C571       Br578   1.935       .  S
C572        C573   1.417       .  A
C572       Br577   1.934       .  S
C573        C574   1.417       .  A
C574       Br575   1.933       .  S
C579        C580   1.414   1_655  A
C579        C584   1.409       .  A
C579       Br586   1.932       .  S
C580        C581   1.414       .  A
C581        C582   1.410       .  A
C581       Br588   1.932       .  S
C582        C583   1.411   1_455  A
C582       Br587   1.931       .  S
C583        C584   1.411       .  A
C584       Br585   1.932       .  S
C589        C590   1.409       .  A
C589        C594   1.409       .  A
C589       Br596   1.931       .  S
C590        C591   1.409       .  A
C591        C592   1.407       .  A
C591       Br598   1.931       .  S
C592        C593   1.413       .  A
C592       Br597   1.932       .  S
C593        C594   1.413       .  A
C594       Br595   1.931       .  S
C599        C600   1.412       .  A
C599        C604   1.408       .  A
C599       Br606   1.931       .  S
C600        C601   1.412       .  A
C601        C602   1.408       .  A
C601       Br608   1.932       .  S
C602        C603   1.410       .  A
C602       Br607   1.931       .  S
C603        C604   1.410       .  A
C604       Br605   1.931       .  S
C609        C610   1.411       .  A
C609        C614   1.407       .  A
C609       Br616   1.931       .  S
C610        C611   1.409       .  A
C611        C612   1.409       .  A
C611       Br618   1.930       .  S
C612        C613   1.412       .  A
C612       Br617   1.931       .  S
C613        C614   1.410       .  A
C614       Br615   1.931       .  S
C619        C620   1.411   1_655  A
C619        C624   1.411       .  A
C619       Br626   1.928       .  S
C620        C621   1.410       .  A
C621        C622   1.409       .  A
C621       Br628   1.929       .  S
C622        C623   1.410       .  A
C622       Br627   1.928       .  S
C623        C624   1.409   1_455  A
C624       Br625   1.929       .  S
C629        C630   1.409       .  A
C629        C634   1.408       .  A
C629       Br636   1.931       .  S
C630        C631   1.408       .  A
C631        C632   1.409   1_655  A
C631       Br638   1.930   1_655  S
C632        C633   1.413   1_455  A
C632       Br637   1.930       .  S
C633        C634   1.412       .  A
C634       Br635   1.930       .  S
C639        C640   1.412       .  A
C639        C644   1.409       .  A
C639       Br646   1.931       .  S
C640        C641   1.412       .  A
C641        C642   1.410       .  A
C641       Br648   1.930       .  S
C642        C643   1.409       .  A
C642       Br647   1.930       .  S
C643        C644   1.409       .  A
C644       Br645   1.930       .  S
C649        C650   1.408       .  A
C649        C654   1.407       .  A
C649       Br656   1.931       .  S
C650        C651   1.409       .  A
C651        C652   1.409       .  A
C651       Br658   1.931       .  S
C652        C653   1.413       .  A
C652       Br657   1.931       .  S
C653        C654   1.414       .  A
C654       Br655   1.932       .  S
C659        C660   1.413       .  A
C659        C664   1.409       .  A
C659       Br666   1.932       .  S
C660        C661   1.412       .  A
C661        C662   1.409       .  A
C661       Br668   1.932       .  S
C662        C663   1.412       .  A
C662       Br667   1.932       .  S
C663        C664   1.411       .  A
C664       Br665   1.932       .  S
C669        C670   1.409       .  A
C669        C674   1.409       .  A
C669       Br676   1.928       .  S
C670        C671   1.409       .  A
C671        C672   1.408       .  A
C671       Br678   1.929       .  S
C672        C673   1.409       .  A
C672       Br677   1.929       .  S
C673        C674   1.410       .  A
C674       Br675   1.929       .  S
C679        C680   1.410       .  A
C679        C684   1.409       .  A
C679       Br686   1.929       .  S
C680        C681   1.410       .  A
C681        C682   1.407       .  A
C681       Br688   1.930       .  S
C682        C683   1.409       .  A
C682       Br687   1.930       .  S
C683        C684   1.409       .  A
C684       Br685   1.929       .  S
C689        C690   1.409       .  A
C689        C694   1.410       .  A
C689       Br696   1.929       .  S
C690        C691   1.409       .  A
C691        C692   1.410       .  A
C691       Br698   1.929       .  S
C692        C693   1.411       .  A
C692       Br697   1.929       .  S
C693        C694   1.411       .  A
C694       Br695   1.930       .  S
C699        C700   1.409       .  A
C699        C704   1.410       .  A
C699       Br706   1.929       .  S
C700        C701   1.409       .  A
C701        C702   1.408       .  A
C701       Br708   1.929       .  S
C702        C703   1.410       .  A
C702       Br707   1.929       .  S
C703        C704   1.410       .  A
C704       Br705   1.929       .  S
C709        C710   1.410       .  A
C709        C714   1.409       .  A
C709       Br716   1.929       .  S
C710        C711   1.410       .  A
C711        C712   1.408       .  A
C711       Br718   1.929       .  S
C712        C713   1.409       .  A
C712       Br717   1.929       .  S
C713        C714   1.409       .  A
C714       Br715   1.929       .  S
C719        C720   1.408       .  A
C719        C724   1.410       .  A
C719       Br726   1.930       .  S
C720        C721   1.409       .  A
C721        C722   1.411       .  A
C721       Br728   1.930       .  S
C722        C723   1.413       .  A
C722       Br727   1.930       .  S
C723        C724   1.413       .  A
C724       Br725   1.930       .  S
C729        C730   1.411       .  A
C729        C734   1.407   1_655  A
C729       Br736   1.929   1_655  S
C730        C731   1.411       .  A
C731        C732   1.407       .  A
C731       Br738   1.931       .  S
C732        C733   1.409       .  A
C732       Br737   1.929       .  S
C733        C734   1.407   1_655  A
C734       Br735   1.930       .  S
C739        C740   1.411   1_655  A
C739        C744   1.410   1_655  A
C739       Br746   1.931       .  S
C740        C741   1.412       .  A
C741        C742   1.408       .  A
C741       Br748   1.932       .  S
C742        C743   1.411       .  A
C742       Br747   1.932       .  S
C743        C744   1.412       .  A
C744       Br745   1.930   1_455  S
C749        C750   1.411       .  A
C749        C754   1.408       .  A
C749       Br756   1.930       .  S
C750        C751   1.410       .  A
C751        C752   1.408       .  A
C751       Br758   1.930       .  S
C752        C753   1.409       .  A
C752       Br757   1.929       .  S
C753        C754   1.409       .  A
C754       Br755   1.931       .  S
C759        C760   1.408       .  A
C759        C764   1.411       .  A
C759       Br766   1.930       .  S
C760        C761   1.408       .  A
C761        C762   1.411       .  A
C761       Br768   1.930       .  S
C762        C763   1.415       .  A
C762       Br767   1.930       .  S
C763        C764   1.414       .  A
C764       Br765   1.930       .  S
C769        C770   1.410       .  A
C769        C774   1.410       .  A
C769       Br776   1.929       .  S
C770        C771   1.409       .  A
C771        C772   1.409       .  A
C771       Br778   1.930       .  S
C772        C773   1.412       .  A
C772       Br777   1.931       .  S
C773        C774   1.411       .  A
C774       Br775   1.930       .  S
C779        C780   1.413       .  A
C779        C784   1.410       .  A
C779       Br786   1.931       .  S
C780        C781   1.414       .  A
C781        C782   1.411       .  A
C781       Br788   1.931       .  S
C782        C783   1.411       .  A
C782       Br787   1.931       .  S
C783        C784   1.412       .  A
C784       Br785   1.932       .  S
C789        C790   1.410       .  A
C789        C794   1.410       .  A
C789       Br796   1.932       .  S
C790        C791   1.409       .  A
C791        C792   1.409       .  A
C791       Br798   1.932   1_455  S
C792        C793   1.416       .  A
C792       Br797   1.932       .  S
C793        C794   1.415       .  A
C794       Br795   1.931       .  S
C799        C800   1.408   1_455  A
C799        C804   1.407       .  A
C799       Br806   1.929       .  S
C800        C801   1.409       .  A
C801        C802   1.408       .  A
C801       Br808   1.928       .  S
C802        C803   1.409   1_655  A
C802       Br807   1.929       .  S
C803        C804   1.409       .  A
C804       Br805   1.929       .  S
C809        C810   1.409       .  A
C809        C814   1.406       .  A
C809       Br816   1.930       .  S
C810        C811   1.409       .  A
C811        C812   1.409       .  A
C811       Br818   1.928   1_455  S
C812        C813   1.409       .  A
C812       Br817   1.928   1_455  S
C813        C814   1.409       .  A
C814       Br815   1.930       .  S
C819        C820   1.408       .  A
C819        C824   1.408       .  A
C819       Br826   1.930       .  S
C820        C821   1.408       .  A
C821        C822   1.408       .  A
C821       Br828   1.930   1_455  S
C822        C823   1.412       .  A
C822       Br827   1.930   1_455  S
C823        C824   1.411       .  A
C824       Br825   1.930       .  S
C829        C830   1.409       .  A
C829        C834   1.407       .  A
C829       Br836   1.929   1_655  S
C830        C831   1.409       .  A
C831        C832   1.408       .  A
C831       Br838   1.928       .  S
C832        C833   1.409       .  A
C832       Br837   1.929       .  S
C833        C834   1.409       .  A
C834       Br835   1.929   1_655  S
C839        C840   1.409   1_455  A
C839        C844   1.406       .  A
C839       Br846   1.929       .  S
C840        C841   1.409       .  A
C841        C842   1.408       .  A
C841       Br848   1.929       .  S
C842        C843   1.409       .  A
C842       Br847   1.929       .  S
C843        C844   1.408   1_655  A
C844       Br845   1.929       .  S
C849        C850   1.408       .  A
C849        C854   1.408       .  A
C849       Br856   1.930       .  S
C850        C851   1.408       .  A
C851        C852   1.410       .  A
C851       Br858   1.930       .  S
C852        C853   1.412       .  A
C852       Br857   1.929       .  S
C853        C854   1.413       .  A
C854       Br855   1.931       .  S
C859        C860   1.407       .  A
C859        C864   1.408       .  A
C859       Br866   1.930       .  S
C860        C861   1.407       .  A
C861        C862   1.408       .  A
C861       Br868   1.930       .  S
C862        C863   1.412       .  A
C862       Br867   1.930       .  S
C863        C864   1.413       .  A
C864       Br865   1.931       .  S
C869        C870   1.408       .  A
C869        C874   1.407       .  A
C869       Br876   1.929       .  S
C870        C871   1.408       .  A
C871        C872   1.406       .  A
C871       Br878   1.929       .  S
C872        C873   1.408       .  A
C872       Br877   1.929       .  S
C873        C874   1.408       .  A
C874       Br875   1.928       .  S
C879        C880   1.409       .  A
C879        C884   1.408       .  A
C879       Br886   1.930       .  S
C880        C881   1.409       .  A
C881        C882   1.408       .  A
C881       Br888   1.929       .  S
C882        C883   1.409       .  A
C882       Br887   1.929       .  S
C883        C884   1.409       .  A
C884       Br885   1.929       .  S
C889        C890   1.407       .  A
C889        C894   1.407       .  A
C889       Br896   1.930       .  S
C890        C891   1.409       .  A
C891        C892   1.409       .  A
C891       Br898   1.930       .  S
C892        C893   1.412       .  A
C892       Br897   1.930       .  S
C893        C894   1.413       .  A
C894       Br895   1.931       .  S
C899        C900   1.409       .  A
C899        C904   1.406       .  A
C899       Br906   1.930       .  S
C900        C901   1.409       .  A
C901        C902   1.407       .  A
C901       Br908   1.930       .  S
C902        C903   1.409       .  A
C902       Br907   1.929       .  S
C903        C904   1.409       .  A
C904       Br905   1.930       .  S
C909        C910   1.408       .  A
C909        C914   1.406       .  A
C909       Br916   1.929       .  S
C910        C911   1.408       .  A
C911        C912   1.407       .  A
C911       Br918   1.929       .  S
C912        C913   1.409       .  A
C912       Br917   1.928       .  S
C913        C914   1.408       .  A
C914       Br915   1.929       .  S
C919        C920   1.407       .  A
C919        C924   1.406       .  A
C919       Br926   1.931       .  S
C920        C921   1.407       .  A
C921        C922   1.408       .  A
C921       Br928   1.930       .  S
C922        C923   1.413       .  A
C922       Br927   1.930       .  S
C923        C924   1.413       .  A
C924       Br925   1.931       .  S
C929        C930   1.410       .  A
C929        C934   1.408       .  A
C929       Br936   1.929       .  S
C930        C931   1.411       .  A
C931        C932   1.407       .  A
C931       Br938   1.930       .  S
C932        C933   1.408       .  A
C932       Br937   1.930   1_655  S
C933        C934   1.408       .  A
C934       Br935   1.930       .  S
C939        C940   1.416       .  A
C939        C944   1.409       .  A
C939       Br946   1.935       .  S
C940        C941   1.416       .  A
C941        C942   1.408       .  A
C941       Br948   1.933       .  S
C942        C943   1.413       .  A
C942       Br947   1.934       .  S
C943        C944   1.415       .  A
C944       Br945   1.933       .  S
C949        C950   1.413   1_455  A
C949        C954   1.409       .  A
C949       Br956   1.931       .  S
C950        C951   1.414       .  A
C951        C952   1.409       .  A
C951       Br958   1.932       .  S
C952        C953   1.409   1_655  A
C952       Br957   1.931       .  S
C953        C954   1.411       .  A
C954       Br955   1.932       .  S
C959        C960   1.409       .  A
C959        C964   1.410       .  A
C959       Br966   1.929       .  S
C960        C961   1.409       .  A
C961        C962   1.409       .  A
C961       Br968   1.929       .  S
C962        C963   1.411       .  A
C962       Br967   1.930       .  S
C963        C964   1.411       .  A
C964       Br965   1.929       .  S
C969        C970   1.408       .  A
C969        C974   1.409       .  A
C969       Br976   1.931       .  S
C970        C971   1.409       .  A
C971        C972   1.410       .  A
C971       Br978   1.932       .  S
C972        C973   1.415       .  A
C972       Br977   1.931       .  S
C973        C974   1.416       .  A
C974       Br975   1.932       .  S
C979        C980   1.413       .  A
C979        C984   1.407       .  A
C979       Br986   1.931       .  S
C980        C981   1.413       .  A
C981        C982   1.407       .  A
C981       Br988   1.930       .  S
C982        C983   1.407       .  A
C982       Br987   1.931       .  S
C983        C984   1.407       .  A
C984       Br985   1.931       .  S
C989        C990   1.407       .  A
C989        C994   1.408       .  A
C989       Br996   1.931       .  S
C990        C991   1.408       .  A
C991        C992   1.408       .  A
C991       Br998   1.931       .  S
C992        C993   1.413       .  A
C992       Br997   1.931       .  S
C993        C994   1.415       .  A
C994       Br995   1.931       .  S
C999       C1000   1.408       .  A
C999       C1004   1.408       .  A
C999      Br1006   1.931       .  S
C1000      C1001   1.406       .  A
C1001      C1002   1.407       .  A
C1001     Br1008   1.931       .  S
C1002      C1003   1.414       .  A
C1002     Br1007   1.932       .  S
C1003      C1004   1.413       .  A
C1004     Br1005   1.930       .  S
