geometry optimzed in LAMMPS
_audit_creation_date              2020-12-01 
_audit_creation_method            'lammps2cif' 
_symmetry_space_group_name_H-M    'P1' 
_symmetry_Int_Tables_number       1 
_symmetry_cell_setting            triclinic 
loop_ 
_symmetry_equiv_pos_as_xyz 
  x,y,z 
_cell_length_a                    51.88126302 
_cell_length_b                    52.23541426263618 
_cell_length_c                    52.13338906003388 
_cell_angle_alpha                 89.92688967635759 
_cell_angle_beta                  89.9254698735118 
_cell_angle_gamma                 90.01396979270662 
loop_ 
_atom_site_label 
_atom_site_type_symbol 
_atom_site_fract_x 
_atom_site_fract_y 
_atom_site_fract_z 
_atom_site_charge 
O1          O  0.86398037  0.48251066  0.88131089    -0.73200
O2          O  0.89539834  0.53754133  0.83858794    -0.74200
O3          O  0.86226892  0.53643091  0.88160194    -0.62800
O4          O  0.89714699  0.48390773  0.83819003    -0.71200
O5          O  0.86324222  0.48250389  0.81227330    -0.70700
O6          O  0.82855715  0.53567348  0.85552158    -0.62000
O7          O  0.86197122  0.53650339  0.81222229    -0.74500
O8          O  0.83009996  0.48152308  0.85545710    -0.73300
Cu9        Cu  0.88085064  0.51012490  0.86082325     1.04600
Cu10       Cu  0.84474245  0.50904193  0.83297173     1.04300
C11         C  0.84188914  0.47351790  0.87540198     0.93000
C12         C  0.88397966  0.54550229  0.81841569     0.92200
C13         C  0.83984119  0.54439325  0.87544969     0.84300
C14         C  0.88595032  0.47522324  0.81821755     0.90600
O15         O  0.69907542  0.69210251  0.07055779    -0.73200
O16         O  0.73924392  0.66388202  0.01152918    -0.74200
O17         O  0.69421060  0.69390683  0.01664787    -0.62800
O18         O  0.74396550  0.66168019  0.06558729    -0.71200
O19         O  0.71942450  0.62711447  0.06680689    -0.70700
O20         O  0.67048309  0.65843705  0.01722899    -0.62000
O21         O  0.71557474  0.62856397  0.01273382    -0.74500
O22         O  0.67465496  0.65727007  0.07120708    -0.73300
Cu23       Cu  0.71999866  0.67911717  0.04105974     1.04600
Cu24       Cu  0.69424982  0.64159784  0.04203008     1.04300
C25         C  0.68036575  0.67934809  0.08008010     0.93000
C26         C  0.73366177  0.64180133  0.00264405     0.92200
C27         C  0.67453489  0.68118665  0.00934050     0.84300
C28         C  0.73937451  0.63929602  0.07429125     0.90600
O29         O  0.49652320  0.77510405  0.86750354    -0.73200
O30         O  0.55486492  0.81594457  0.83764513    -0.74200
O31         O  0.55089030  0.77339412  0.87138446    -0.62800
O32         O  0.50041626  0.81755699  0.83360931    -0.71200
O33         O  0.49893626  0.84409930  0.86671009    -0.70700
O34         O  0.54909017  0.80020377  0.90434246    -0.62000
O35         O  0.55301618  0.84229662  0.87090276    -0.74500
O36         O  0.49506861  0.80180868  0.90048757    -0.73300
Cu37       Cu  0.52570167  0.79454986  0.85133834     1.04600
Cu38       Cu  0.52392640  0.82299323  0.88673803     1.04300
C39         C  0.48695444  0.78175843  0.88907316     0.93000
C40         C  0.56295313  0.83579937  0.84948901     0.92200
C41         C  0.55811103  0.78006091  0.89381364     0.84300
C42         C  0.49174844  0.83788681  0.84415693     0.90600
O43         O  0.70977058  0.96015100  0.76739231    -0.73200
O44         O  0.74432372  0.01412317  0.72399174    -0.74200
O45         O  0.71097619  0.01477361  0.76700047    -0.62800
O46         O  0.74383952  0.95997438  0.72432034    -0.71200
O47         O  0.70992794  0.95999153  0.69843549    -0.70700
O48         O  0.67752494  0.01521212  0.74058385    -0.62000
O49         O  0.71056279  0.01350726  0.69781835    -0.74500
O50         O  0.67639511  0.96117911  0.74097877    -0.73300
Cu51       Cu  0.72840548  0.98719299  0.74671158     1.04600
Cu52       Cu  0.69241776  0.98745543  0.71867156     1.04300
C53         C  0.68746375  0.95209231  0.76082960     0.93000
C54         C  0.73276587  0.02200237  0.70382504     0.92200
C55         C  0.68933467  0.02415845  0.76009806     0.84300
C56         C  0.73229929  0.95169444  0.70434035     0.90600
O57         O  0.06002458  0.69337265  0.65795718    -0.73200
O58         O  0.00147744  0.65544761  0.68981020    -0.74200
O59         O  0.00589333  0.69828074  0.65722530    -0.62800
O60         O  0.05562337  0.65042815  0.69047427    -0.71200
O61         O  0.05829579  0.67638647  0.72408309    -0.70700
O62         O  0.00751776  0.72389830  0.69110305    -0.62000
O63         O  0.00385456  0.68066993  0.72388158    -0.74500
O64         O  0.06192235  0.71931352  0.69161073    -0.73300
Cu65       Cu  0.03068012  0.67351520  0.67268676     1.04600
Cu66       Cu  0.03292216  0.70097774  0.70888357     1.04300
C67         C  0.07015257  0.71233937  0.66962401     0.93000
C68         C  0.99339874  0.66200759  0.71198958     0.92200
C69         C  0.99863493  0.71849285  0.66890922     0.84300
C70         C  0.06508262  0.65601951  0.71234801     0.90600
O71         O  0.88811896  0.84752940  0.49655804    -0.73200
O72         O  0.84250014  0.87754535  0.55069223    -0.74200
O73         O  0.88894287  0.84874075  0.55057884    -0.62800
O74         O  0.84141604  0.87630001  0.49646547    -0.71200
O75         O  0.81871828  0.84034610  0.49763681    -0.70700
O76         O  0.86541674  0.81322426  0.55234930    -0.62000
O77         O  0.81937370  0.84182080  0.55193726    -0.74500
O78         O  0.86577141  0.81146614  0.49810305    -0.73300
Cu79       Cu  0.86598382  0.86380004  0.52345526     1.04600
Cu80       Cu  0.84150992  0.82545838  0.52493801     1.04300
C81         C  0.88470897  0.82444374  0.48924367     0.93000
C82         C  0.82382534  0.86450799  0.55992500     0.92200
C83         C  0.88446777  0.82661984  0.56004580     0.84300
C84         C  0.82239509  0.86284276  0.48870724     0.90600
O85         O  0.58106781  0.21473240  0.87827461    -0.73200
O86         O  0.52641310  0.18176756  0.83584071    -0.74200
O87         O  0.52784429  0.22332201  0.87097090    -0.62800
O88         O  0.57952026  0.17354279  0.84349062    -0.71200
O89         O  0.57105997  0.14709268  0.87570339    -0.70700
O90         O  0.51891154  0.19649563  0.90283570    -0.62000
O91         O  0.51761228  0.15523993  0.86806568    -0.74500
O92         O  0.57193457  0.18849135  0.91063091    -0.73300
Cu93       Cu  0.55400781  0.19929865  0.85602746     1.04600
Cu94       Cu  0.54457677  0.17088477  0.89042860     1.04300
C95         C  0.58507708  0.20683269  0.90109460     0.93000
C96         C  0.51359043  0.16312149  0.84523831     0.92200
C97         C  0.51515335  0.21769854  0.89122610     0.84300
C98         C  0.58334633  0.15234003  0.85511198     0.90600
O99         O  0.72674771  0.30121275  0.01712990    -0.73200
O100        O  0.76609528  0.34188804  0.06844124    -0.74200
O101        O  0.72643590  0.30511444  0.07111260    -0.62800
O102        O  0.76644442  0.33837350  0.01403990    -0.71200
O103        O  0.73713000  0.36934811  0.01266215    -0.70700
O104        O  0.69715597  0.33593432  0.06835689    -0.62000
O105        O  0.73662900  0.37267040  0.06646138    -0.74500
O106        O  0.69767312  0.33231484  0.01447650    -0.73300
Cu107      Cu  0.74752290  0.32056016  0.04270935     1.04600
Cu108      Cu  0.71616040  0.35363936  0.04035641     1.04300
C109        C  0.70591475  0.31027088  0.00783094     0.93000
C110        C  0.75728788  0.36341874  0.07596846     0.92200
C111        C  0.70544888  0.31542736  0.07876677     0.84300
C112        C  0.75798865  0.35930448  0.00451995     0.90600
O113        O  0.87400166  0.53449731  0.18984075    -0.73200
O114        O  0.91172451  0.48383728  0.23260334    -0.74200
O115        O  0.87557340  0.48090261  0.19241036    -0.62800
O116        O  0.90985786  0.53777081  0.23023445    -0.71200
O117        O  0.87800584  0.53791450  0.25861130    -0.70700
O118        O  0.84360904  0.48113397  0.22069211    -0.62000
O119        O  0.87980954  0.48373263  0.26091941    -0.74500
O120        O  0.84194277  0.53500178  0.21806187    -0.73300
Cu121      Cu  0.89393638  0.50926060  0.21034747     1.04600
Cu122      Cu  0.85974979  0.50948064  0.24062688     1.04300
C123        C  0.85191654  0.54255933  0.19695208     0.93000
C124        C  0.90176994  0.47558453  0.25343130     0.92200
C125        C  0.85406794  0.47211243  0.20045124     0.84300
C126        C  0.89926101  0.54702126  0.25031645     0.90600
O127        O  0.02480207  0.70517240  0.40091170    -0.73200
O128        O  0.06816020  0.65408419  0.36328251    -0.74200
O129        O  0.07848447  0.69518791  0.39724074    -0.62800
O130        O  0.01524221  0.66429041  0.36672885    -0.71200
O131        O  0.01782533  0.69137136  0.33410655    -0.70700
O132        O  0.08150672  0.72173853  0.36411650    -0.62000
O133        O  0.07076757  0.68047431  0.33002144    -0.74500
O134        O  0.02783372  0.73206154  0.36808959    -0.73300
Cu135      Cu  0.04665568  0.67883732  0.38325642     1.04600
Cu136      Cu  0.04969173  0.70740945  0.34798951     1.04300
C137        C  0.01876003  0.72632981  0.39016740     0.93000
C138        C  0.07544668  0.65875377  0.34034247     0.92200
C139        C  0.09004691  0.71332479  0.38547928     0.84300
C140        C  0.00664204  0.67273019  0.34540963     0.90600
O141        O  0.22874974  0.79850350  0.51250967    -0.73200
O142        O  0.26434763  0.83829511  0.56824998    -0.74200
O143        O  0.22740668  0.79839928  0.56688602    -0.62800
O144        O  0.26640732  0.83789582  0.51394761    -0.71200
O145        O  0.23453575  0.86623386  0.51188632    -0.70700
O146        O  0.19685614  0.82812628  0.56683628    -0.62000
O147        O  0.23382610  0.86772944  0.56588782    -0.74500
O148        O  0.19733305  0.82730034  0.51275345    -0.73300
Cu149      Cu  0.24785965  0.81722759  0.54044240     1.04600
Cu150      Cu  0.21457620  0.84833381  0.53933408     1.04300
C151        C  0.20724251  0.80679566  0.50388149     0.93000
C152        C  0.25466074  0.85952395  0.57582137     0.92200
C153        C  0.20608444  0.80711954  0.57540478     0.84300
C154        C  0.25645726  0.85806630  0.50434107     0.90600
O155        O  0.37672535  0.03771223  0.75670869    -0.73200
O156        O  0.34102109  0.98440787  0.71471575    -0.74200
O157        O  0.37691995  0.98344829  0.75525488    -0.62800
O158        O  0.34066860  0.03850362  0.71598643    -0.71200
O159        O  0.37263018  0.03901968  0.68767517    -0.70700
O160        O  0.40925101  0.98461058  0.72732837    -0.62000
O161        O  0.37322239  0.98512267  0.68665834    -0.74500
O162        O  0.40845947  0.03884887  0.72805407    -0.73300
Cu163      Cu  0.35772615  0.01100618  0.73669964     1.04600
Cu164      Cu  0.39204421  0.01193348  0.70649022     1.04300
C165        C  0.39817434  0.04678370  0.74881943     0.93000
C166        C  0.35150507  0.97630413  0.69409660     0.92200
C167        C  0.39877867  0.97530976  0.74747093     0.84300
C168        C  0.35072310  0.04710800  0.69532061     0.90600
O169        O  0.71653588  0.96943519  0.35427217    -0.73200
O170        O  0.68863624  0.02721244  0.31224105    -0.74200
O171        O  0.72199456  0.02363235  0.35511575    -0.62800
O172        O  0.68257214  0.97347461  0.31130167    -0.71200
O173        O  0.64957606  0.97609405  0.33824159    -0.70700
O174        O  0.68839937  0.02597897  0.38147754    -0.62000
O175        O  0.65503226  0.02968313  0.33854709    -0.74500
O176        O  0.68345504  0.97240413  0.38116370    -0.73300
Cu177      Cu  0.70364978  0.99827583  0.33232289     1.04600
Cu178      Cu  0.66796632  0.00112309  0.36075691     1.04300
C179        C  0.70475799  0.96208674  0.37452415     0.93000
C180        C  0.66708965  0.03717854  0.31851005     0.92200
C181        C  0.71122234  0.03265055  0.37524926     0.84300
C182        C  0.65951206  0.96742593  0.31757624     0.90600
O183        O  0.53981513  0.84834329  0.19608942    -0.73200
O184        O  0.48924272  0.79949886  0.16519916    -0.74200
O185        O  0.48554211  0.84394015  0.19654218    -0.62800
O186        O  0.54343014  0.80361131  0.16532169    -0.71200
O187        O  0.54497454  0.77920406  0.20000143    -0.70700
O188        O  0.48768330  0.81948092  0.23121977    -0.62000
O189        O  0.49036965  0.77506617  0.20005577    -0.74500
O190        O  0.54214103  0.82382290  0.23078002    -0.73300
Cu191      Cu  0.51440082  0.82466434  0.17956732     1.04600
Cu192      Cu  0.51633968  0.79854475  0.21673429     1.04300
C193        C  0.54907672  0.84378623  0.21830185     0.93000
C194        C  0.48202916  0.77955145  0.17742980     0.92200
C195        C  0.47765552  0.83822739  0.21906623     0.84300
C196        C  0.55342155  0.78498926  0.17771885     0.90600
O197        O  0.20884246  0.51879163  0.86078203    -0.73200
O198        O  0.17339209  0.46663508  0.81822303    -0.74200
O199        O  0.21081244  0.46536905  0.85712070    -0.62800
O200        O  0.17149418  0.52038418  0.82152097    -0.71200
O201        O  0.20240906  0.52371808  0.79228775    -0.70700
O202        O  0.24163653  0.46804773  0.82769606    -0.62000
O203        O  0.20358938  0.46952482  0.78831258    -0.74500
O204        O  0.24006714  0.52195292  0.83189155    -0.73300
Cu205      Cu  0.19005177  0.49268876  0.84032710     1.04600
Cu206      Cu  0.22301013  0.49590493  0.80893291     1.04300
C207        C  0.23037972  0.52817440  0.85357935     0.93000
C208        C  0.18260593  0.45968672  0.79662186     0.92200
C209        C  0.23261072  0.45825462  0.84829522     0.84300
C210        C  0.18080190  0.53100593  0.80148486     0.90600
O211        O  0.33475080  0.62177521  0.00337437    -0.73200
O212        O  0.36763171  0.65794697  0.06244337    -0.74200
O213        O  0.32806787  0.62106363  0.05716471    -0.62800
O214        O  0.37393596  0.65895394  0.00858366    -0.71200
O215        O  0.34446719  0.68958071  0.00518621    -0.70700
O216        O  0.29931040  0.65251269  0.05496933    -0.62000
O217        O  0.33915714  0.68946798  0.05921465    -0.74500
O218        O  0.30527967  0.65240965  0.00060702    -0.73300
Cu219      Cu  0.35207062  0.63883678  0.03300733     1.04600
Cu220      Cu  0.32097047  0.67205063  0.02990085     1.04300
C221        C  0.31502080  0.63145751  0.99243927     0.93000
C222        C  0.35884616  0.67946961  0.07005428     0.92200
C223        C  0.30666076  0.63100929  0.06400520     0.84300
C224        C  0.36644564  0.68032689  0.99929034     0.90600
O225        O  0.19164960  0.45535268  0.24978209    -0.73200
O226        O  0.22472286  0.51248110  0.21035903    -0.74200
O227        O  0.18940651  0.51016404  0.25160069    -0.62800
O228        O  0.22673593  0.45861593  0.20852170    -0.71200
O229        O  0.19430015  0.45873138  0.18092873    -0.70700
O230        O  0.15669844  0.50958713  0.22421767    -0.62000
O231        O  0.19176042  0.51249018  0.18322939    -0.74500
O232        O  0.15895135  0.45532691  0.22230405    -0.73300
Cu233      Cu  0.20920421  0.48412818  0.23114613     1.04600
Cu234      Cu  0.17424343  0.48395534  0.20179966     1.04300
C235        C  0.17030055  0.44605834  0.24194207     0.93000
C236        C  0.21344888  0.52141236  0.19050935     0.92200
C237        C  0.16751619  0.51863950  0.24422900     0.84300
C238        C  0.21661657  0.45088305  0.18758525     0.90600
O239        O  0.32903667  0.34655418  0.99064850    -0.73200
O240        O  0.36683855  0.31513438  0.04921774    -0.74200
O241        O  0.32269501  0.34599934  0.04448382    -0.62800
O242        O  0.37323984  0.31565282  0.99533431    -0.71200
O243        O  0.39828387  0.34997351  0.99891817    -0.70700
O244        O  0.34694487  0.38091589  0.04721293    -0.62000
O245        O  0.39136035  0.34982292  0.05259883    -0.74500
O246        O  0.35380354  0.38109335  0.99331224    -0.73300
Cu247      Cu  0.34709193  0.32965132  0.01980711     1.04600
Cu248      Cu  0.37342298  0.36673208  0.02311505     1.04300
C249        C  0.33562841  0.36864041  0.98248375     0.93000
C250        C  0.38502126  0.32742137  0.06015761     0.92200
C251        C  0.32683990  0.36828670  0.05359737     0.84300
C252        C  0.39382261  0.32780886  0.98962313     0.90600
O253        O  0.50788774  0.15695577  0.19478587    -0.73200
O254        O  0.56013323  0.20286403  0.16214427    -0.74200
O255        O  0.56233176  0.16051971  0.19535720    -0.62800
O256        O  0.50590952  0.19969762  0.16134418    -0.71200
O257        O  0.50441145  0.22616613  0.19453499    -0.70700
O258        O  0.55976007  0.18578124  0.22924693    -0.62000
O259        O  0.55885859  0.22857501  0.19595665    -0.74500
O260        O  0.50521941  0.18357595  0.22784864    -0.73300
Cu261      Cu  0.53409713  0.17909542  0.17724804     1.04600
Cu262      Cu  0.53196657  0.20693535  0.21307650     1.04300
C263        C  0.49816182  0.16314264  0.21642146     0.93000
C264        C  0.56784227  0.22288491  0.17386911     0.92200
C265        C  0.57016182  0.16689906  0.21767895     0.84300
C266        C  0.49635322  0.21928380  0.17245470     0.90600
O267        O  0.98714460  0.30229029  0.67198993    -0.73200
O268        O  0.04831404  0.34422900  0.69162115    -0.74200
O269        O  0.04062436  0.29912311  0.66295424    -0.62800
O270        O  0.99467333  0.34737413  0.70057741    -0.71200
O271        O  0.99809931  0.32350201  0.73559497    -0.70700
O272        O  0.04631921  0.27640931  0.69856869    -0.62000
O273        O  0.05213387  0.32158934  0.72740046    -0.74500
O274        O  0.99227587  0.27793533  0.70655849    -0.73300
Cu275      Cu  0.01749576  0.32404903  0.68056668     1.04600
Cu276      Cu  0.02231934  0.29903795  0.71830753     1.04300
C277        C  0.98017485  0.28342576  0.68596013     0.93000
C278        C  0.06004447  0.33945878  0.71261525     0.92200
C279        C  0.05094324  0.28037623  0.67483800     0.84300
C280        C  0.98915118  0.34318033  0.72407962     0.90600
O281        O  0.87180045  0.16644107  0.56191124    -0.73200
O282        O  0.82913870  0.13229532  0.50845610    -0.74200
O283        O  0.86810335  0.16997803  0.50827546    -0.62800
O284        O  0.83304961  0.12915473  0.56247349    -0.71200
O285        O  0.80279239  0.15898161  0.56612211    -0.70700
O286        O  0.83889155  0.20072694  0.51236892    -0.62000
O287        O  0.79945089  0.16263828  0.51162020    -0.74500
O288        O  0.84187369  0.19646686  0.56655961    -0.73300
Cu289      Cu  0.85146206  0.14840921  0.53506621     1.04600
Cu290      Cu  0.81962393  0.18077916  0.53922614     1.04300
C291        C  0.86360188  0.18674434  0.57276323     0.93000
C292        C  0.80757852  0.14184088  0.50154273     0.92200
C293        C  0.85939426  0.19194798  0.50200269     0.84300
C294        C  0.81289645  0.13790628  0.57342633     0.90600
O295        O  0.25282049  0.16662395  0.51450036    -0.73200
O296        O  0.20181941  0.20067016  0.56064884    -0.74200
O297        O  0.24869743  0.17388304  0.56812004    -0.62800
O298        O  0.20588633  0.19320160  0.50727467    -0.71200
O299        O  0.18409214  0.15679824  0.51086185    -0.70700
O300        O  0.22653391  0.13765902  0.57133363    -0.62000
O301        O  0.17991149  0.16432117  0.56413169    -0.74500
O302        O  0.23097834  0.13025964  0.51790170    -0.73300
Cu303      Cu  0.22811076  0.18486804  0.53751898     1.04600
Cu304      Cu  0.20468428  0.14596140  0.54117873     1.04300
C305        C  0.24998772  0.14301266  0.50892066     0.93000
C306        C  0.18259423  0.18806175  0.56930628     0.92200
C307        C  0.24412189  0.15266400  0.57944674     0.84300
C308        C  0.18803456  0.17817837  0.49966821     0.90600
O309        O  0.33922203  0.03784159  0.36252612    -0.73200
O310        O  0.36293046  0.98146475  0.31591108    -0.74200
O311        O  0.33346056  0.98430285  0.36166138    -0.62800
O312        O  0.36865175  0.03534176  0.31642578    -0.71200
O313        O  0.40389704  0.03231137  0.34037843    -0.70700
O314        O  0.36953401  0.97936246  0.38402924    -0.62000
O315        O  0.39907008  0.97864650  0.33851902    -0.74500
O316        O  0.37447081  0.03296611  0.38611860    -0.73300
Cu317      Cu  0.34981271  0.00992805  0.33827244     1.04600
Cu318      Cu  0.38800744  0.00571423  0.36301616     1.04300
C319        C  0.35266165  0.04353913  0.38225008     0.93000
C320        C  0.38491917  0.97123117  0.31994912     0.92200
C321        C  0.34587263  0.97396577  0.38006548     0.84300
C322        C  0.39189772  0.04176297  0.32120722     0.90600
O323        O  0.05577694  0.29442691  0.40298551    -0.73200
O324        O  0.00894443  0.34328724  0.36814276    -0.74200
O325        O  0.00279083  0.30519525  0.40614206    -0.62800
O326        O  0.06206430  0.33224028  0.36499418    -0.71200
O327        O  0.05463451  0.30352443  0.33459758    -0.70700
O328        O  0.99510371  0.27664650  0.37558580    -0.62000
O329        O  0.00135042  0.31496411  0.33748362    -0.74500
O330        O  0.04872268  0.26544920  0.37282145    -0.73300
Cu331      Cu  0.03264188  0.31975149  0.38660098     1.04600
Cu332      Cu  0.02463682  0.28907503  0.35407608     1.04300
C333        C  0.05984776  0.27226108  0.39356996     0.93000
C334        C  0.99783719  0.33712924  0.34720939     0.92200
C335        C  0.98948312  0.28668755  0.39721577     0.84300
C336        C  0.06781001  0.32220332  0.34339207     0.90600
C337        C  0.09736359  0.21369351  0.41625608    -0.11600
C338        C  0.11503344  0.22524791  0.43295739     0.14900
C339        C  0.11423757  0.25195748  0.43670108     0.01800
C340        C  0.09641828  0.26656249  0.42316905    -0.16000
C341        C  0.07824795  0.25514145  0.40679685    -0.10800
C342        C  0.07848845  0.22819803  0.40376617     0.08500
C343        C  0.13376692  0.20923528  0.44688820     0.09600
S344        S  0.13492579  0.26856247  0.45899834    -0.25100
H345        H  0.09657237  0.28713064  0.42586613     0.19800
S346        S  0.05453298  0.21093883  0.38574277    -0.30800
H347        H  0.09774256  0.19311291  0.41365791     0.10200
C348        C  0.12570063  0.19209602  0.46617935     0.03400
C349        C  0.14420837  0.18062160  0.48191141    -0.13100
C350        C  0.17050917  0.18632418  0.47905371    -0.08800
C351        C  0.17861532  0.20202820  0.45849922     0.06800
C352        C  0.16014933  0.21329427  0.44263971    -0.13900
S353        S  0.09184838  0.18669576  0.47246497    -0.30800
H354        H  0.13801128  0.16855585  0.49765642     0.11100
S355        S  0.21203673  0.20870215  0.45171175    -0.27900
H356        H  0.16630226  0.22615431  0.42748777     0.08300
H357        H  0.03368925  0.22502698  0.39573512     0.26700
H358        H  0.09501455  0.16903712  0.49260664     0.21500
H359        H  0.22117017  0.18474062  0.46007961     0.26800
H360        H  0.13532421  0.24899563  0.47755248     0.15700
C361        C  0.33269960  0.07428200  0.44501274    -0.11600
C362        C  0.31769171  0.09466130  0.43608943     0.14900
C363        C  0.31632468  0.09971814  0.40954915     0.01800
C364        C  0.32844580  0.08309279  0.39235886    -0.16000
C365        C  0.34234666  0.06178054  0.40117283    -0.10800
C366        C  0.34477814  0.05760801  0.42790925     0.08500
C367        C  0.30042240  0.10735578  0.45452267     0.09600
S368        S  0.29837094  0.12627619  0.39651882    -0.25100
H369        H  0.32669748  0.08659981  0.37193957     0.19800
S370        S  0.36065557  0.03006416  0.44153067    -0.30800
H371        H  0.33346778  0.07027064  0.46540824     0.10200
C372        C  0.27436455  0.10003122  0.45630518     0.03400
C373        C  0.25849829  0.11175823  0.47451164    -0.13100
C374        C  0.26823028  0.13042371  0.49125725    -0.08800
C375        C  0.29469545  0.13697371  0.49004165     0.06800
C376        C  0.31042857  0.12555987  0.47148949    -0.13900
S377        S  0.26145410  0.07532676  0.43571892    -0.30800
H378        H  0.23830941  0.10659246  0.47548740     0.11100
S379        S  0.30986428  0.15857863  0.51235008    -0.27900
H380        H  0.33069218  0.13052528  0.47054053     0.08300
H381        H  0.34984581  0.01251296  0.42418966     0.26700
H382        H  0.23636353  0.07519422  0.44596805     0.21500
H383        H  0.29572591  0.15002142  0.53376889     0.26800
H384        H  0.30023662  0.14200515  0.41829651     0.15700
C385        C  0.92546061  0.25686552  0.41546219    -0.11600
C386        C  0.92932355  0.25203804  0.44160507     0.14900
C387        C  0.95253375  0.25988107  0.45338574     0.01800
C388        C  0.97131852  0.27232146  0.43868052    -0.16000
C389        C  0.96779279  0.27641430  0.41230418    -0.10800
C390        C  0.94427848  0.26916680  0.40077410     0.08500
C391        C  0.90927967  0.23767555  0.45561011     0.09600
S392        S  0.95983481  0.25383063  0.48671116    -0.25100
H393        H  0.98933264  0.27778216  0.44765465     0.19800
S394        S  0.93677894  0.27577996  0.36768853    -0.30800
H395        H  0.90757315  0.25104019  0.40646339     0.10200
C396        C  0.89352523  0.24931282  0.47427022     0.03400
C397        C  0.87615979  0.23417945  0.48828441    -0.13100
C398        C  0.87408857  0.20775302  0.48367227    -0.08800
C399        C  0.88845789  0.19668998  0.46347573     0.06800
C400        C  0.90613471  0.21166600  0.44996444    -0.13900
S401        S  0.89579307  0.28325915  0.48041145    -0.30800
H402        H  0.86499558  0.24273201  0.50359832     0.11100
S403        S  0.88484860  0.16376720  0.45370095    -0.27900
H404        H  0.91771556  0.20294280  0.43502232     0.08300
H405        H  0.94978872  0.29940785  0.36702332     0.26700
H406        H  0.87567028  0.28449857  0.49847805     0.21500
H407        H  0.85837539  0.16232669  0.45947935     0.26800
H408        H  0.94510359  0.23139968  0.48928009     0.15700
C409        C  0.92040642  0.21190474  0.61063534    -0.11600
C410        C  0.90817416  0.22063045  0.63296479     0.14900
C411        C  0.88122561  0.21795444  0.63549860     0.01800
C412        C  0.86704638  0.20729841  0.61535253    -0.16000
C413        C  0.87928494  0.19882461  0.59287862    -0.10800
C414        C  0.90631284  0.20121300  0.59055644     0.08500
C415        C  0.92375267  0.23558767  0.65127002     0.09600
S416        S  0.86395207  0.22762254  0.66392281    -0.25100
H417        H  0.84636392  0.20517389  0.61741788     0.19800
S418        S  0.92378796  0.19266684  0.56187772    -0.30800
H419        H  0.94101504  0.21453214  0.60836056     0.10200
C420        C  0.94471854  0.22461809  0.66447400     0.03400
C421        C  0.96199553  0.24060140  0.67750620    -0.13100
C422        C  0.95867128  0.26726337  0.67738226    -0.08800
C423        C  0.93642736  0.27791013  0.66602269     0.06800
C424        C  0.91938478  0.26200950  0.65284698    -0.13900
S425        S  0.94990451  0.19042765  0.66395495    -0.30800
H426        H  0.97895263  0.23248677  0.68646752     0.11100
S427        S  0.92898418  0.31162403  0.66730968    -0.27900
H428        H  0.90310403  0.27041511  0.64291682     0.08300
H429        H  0.90462179  0.20114804  0.54478386     0.26700
H430        H  0.97225458  0.19031878  0.67920242     0.21500
H431        H  0.94092234  0.31599486  0.69113034     0.26800
H432        H  0.88469329  0.22448024  0.68097534     0.15700
C433        C  0.08255055  0.24101475  0.62290400    -0.11600
C434        C  0.10722704  0.23764257  0.63328186     0.14900
C435        C  0.11279441  0.24713941  0.65800033     0.01800
C436        C  0.09348538  0.25969131  0.67182863    -0.16000
C437        C  0.06903599  0.26372661  0.66111898    -0.10800
C438        C  0.06335883  0.25382082  0.63660105     0.08500
C439        C  0.12676531  0.22466009  0.61745668     0.09600
S440        S  0.14424429  0.24472180  0.67255873    -0.25100
H441        H  0.09796780  0.26752002  0.69055135     0.19800
S442        S  0.03195077  0.25650742  0.62201531    -0.30800
H443        H  0.07823783  0.23356187  0.60399167     0.10200
C444        C  0.13453022  0.19932594  0.62248468     0.03400
C445        C  0.15272839  0.18772152  0.60636851    -0.13100
C446        C  0.16321287  0.20100282  0.58535425    -0.08800
C447        C  0.15491076  0.22626803  0.58016135     0.06800
C448        C  0.13701726  0.23786320  0.59641070    -0.13900
S449        S  0.12085529  0.18165747  0.64901815    -0.30800
H450        H  0.15893432  0.16830027  0.61019821     0.11100
S451        S  0.16519703  0.24423626  0.55240745    -0.27900
H452        H  0.13064098  0.25721644  0.59238097     0.08300
H453        H  0.01798707  0.25560342  0.64515458     0.26700
H454        H  0.13632170  0.15970266  0.64635374     0.21500
H455        H  0.16443770  0.22321856  0.53555825     0.26800
H456        H  0.15852303  0.24499609  0.64964024     0.15700
C457        C  0.44229972  0.13853469  0.25630889    -0.11600
C458        C  0.44850284  0.11245613  0.25789393     0.14900
C459        C  0.46986162  0.10292770  0.24405697     0.01800
C460        C  0.48480620  0.11972852  0.22941174    -0.16000
C461        C  0.47938303  0.14602038  0.22884170    -0.10800
C462        C  0.45744489  0.15539276  0.24188589     0.08500
C463        C  0.43255204  0.09561770  0.27422291     0.09600
S464        S  0.47974339  0.06981944  0.24515637    -0.25100
H465        H  0.50162485  0.11241247  0.21947508     0.19800
S466        S  0.44744665  0.18842490  0.24038845    -0.30800
H467        H  0.42559836  0.14578385  0.26648196     0.10200
C468        C  0.43333742  0.09749664  0.30118353     0.03400
C469        C  0.41964182  0.07976510  0.31605024    -0.13100
C470        C  0.40521559  0.06022278  0.30450773    -0.08800
C471        C  0.40434015  0.05849812  0.27747312     0.06800
C472        C  0.41768219  0.07644784  0.26264094    -0.13900
S473        S  0.45261481  0.12176688  0.31670432    -0.30800
H474        H  0.42023946  0.08100090  0.33677482     0.11100
S475        S  0.38815259  0.03289671  0.26081462    -0.27900
H476        H  0.41732668  0.07488665  0.24191422     0.08300
H477        H  0.45615896  0.19262100  0.21515663     0.26700
H478        H  0.44724788  0.11437596  0.34211063     0.21500
H479        H  0.39520511  0.01372308  0.27843656     0.26800
H480        H  0.47238938  0.06542876  0.27075081     0.15700
C481        C  0.40313565  0.28378513  0.11510985    -0.11600
C482        C  0.43006821  0.28436383  0.11317763     0.14900
C483        C  0.44197378  0.30076528  0.09516942     0.01800
C484        C  0.42670065  0.31647324  0.07978818    -0.16000
C485        C  0.39974144  0.31491026  0.08070570    -0.10800
C486        C  0.38784511  0.29896104  0.09914488     0.08500
C487        C  0.44524829  0.26767649  0.13018039     0.09600
S488        S  0.47636493  0.30158498  0.08987960    -0.25100
H489        H  0.43597846  0.32887539  0.06592117     0.19800
S490        S  0.35340585  0.29773439  0.10372226    -0.30800
H491        H  0.39400958  0.27147171  0.12919766     0.10200
C492        C  0.46081013  0.27786864  0.14974935     0.03400
C493        C  0.47658956  0.26142895  0.16394228    -0.13100
C494        C  0.47679762  0.23494648  0.15922619    -0.08800
C495        C  0.45966468  0.22465283  0.14082702     0.06800
C496        C  0.44438632  0.24117278  0.12626178    -0.13900
S497        S  0.46063238  0.31178325  0.15656884    -0.30800
H498        H  0.48940941  0.26936691  0.17823887     0.11100
S499        S  0.45579223  0.19077375  0.13546499    -0.27900
H500        H  0.43182565  0.23335307  0.11163231     0.08300
H501        H  0.34905799  0.32341529  0.09680712     0.26700
H502        H  0.47868951  0.31112879  0.17665920     0.21500
H503        H  0.45871077  0.18398137  0.16143923     0.26800
H504        H  0.48098936  0.27580574  0.09611947     0.15700
C505        C  0.28740386  0.41483176  0.09313746    -0.11600
C506        C  0.27828015  0.39858487  0.11254170     0.14900
C507        C  0.28389033  0.37220675  0.11162365     0.01800
C508        C  0.29880071  0.36268331  0.09145632    -0.16000
C509        C  0.30871703  0.37903866  0.07245393    -0.10800
C510        C  0.30234434  0.40532843  0.07298063     0.08500
C511        C  0.26265366  0.40982592  0.13322127     0.09600
S512        S  0.27306517  0.34985439  0.13575593    -0.25100
H513        H  0.30351888  0.34247588  0.09115979     0.19800
S514        S  0.31175183  0.42746811  0.04809061    -0.30800
H515        H  0.28263114  0.43503037  0.09362140     0.10200
C516        C  0.27430674  0.42328401  0.15344895     0.03400
C517        C  0.25875564  0.43533799  0.17174045    -0.13100
C518        C  0.23170126  0.43417131  0.17024542    -0.08800
C519        C  0.22020766  0.41918007  0.15071058     0.06800
C520        C  0.23580779  0.40753802  0.13221984    -0.13900
S521        S  0.30899674  0.42537061  0.15569708    -0.30800
H522        H  0.26777623  0.44658974  0.18666005     0.11100
S523        S  0.18599103  0.41366427  0.14844957    -0.27900
H524        H  0.22698718  0.39664340  0.11687788     0.08300
H525        H  0.30984916  0.40963833  0.02796590     0.26700
H526        H  0.30985671  0.43887518  0.17900655     0.21500
H527        H  0.18230183  0.41161268  0.17513181     0.26800
H528        H  0.27280124  0.36719438  0.15633395     0.15700
C529        C  0.15957980  0.38243518  0.27554267    -0.11600
C530        C  0.13395461  0.38527608  0.28360310     0.14900
C531        C  0.12051984  0.40809732  0.27789748     0.01800
C532        C  0.13271507  0.42728437  0.26374593    -0.16000
C533        C  0.15834695  0.42459836  0.25577819    -0.10800
C534        C  0.17185602  0.40178887  0.26146500     0.08500
C535        C  0.12118482  0.36423553  0.29757623     0.09600
S536        S  0.08780856  0.41395544  0.28818828    -0.25100
H537        H  0.12231507  0.44477399  0.25946729     0.19800
S538        S  0.20419422  0.39579270  0.25024819    -0.30800
H539        H  0.16982582  0.36484855  0.27974508     0.10200
C540        C  0.10193562  0.34935997  0.28578136     0.03400
C541        C  0.08584111  0.33408040  0.30103069    -0.13100
C542        C  0.08885300  0.33330449  0.32780754    -0.08800
C543        C  0.11026281  0.34577325  0.33903047     0.06800
C544        C  0.12599405  0.36138918  0.32384225    -0.13900
S545        S  0.09697436  0.35107184  0.25153029    -0.30800
H546        H  0.06985253  0.32408008  0.29224645     0.11100
S547        S  0.11833710  0.34279104  0.37253438    -0.27900
H548        H  0.14133352  0.37229918  0.33274029     0.08300
H549        H  0.20140567  0.40898709  0.22688140     0.26700
H550        H  0.07756512  0.33230951  0.25025014     0.21500
H551        H  0.10922440  0.31751983  0.37501859     0.26800
H552        H  0.08936559  0.40027297  0.31135541     0.15700
C553        C  0.26721170  0.61431496  0.12285325    -0.11600
C554        C  0.26207517  0.58841515  0.11817082     0.14900
C555        C  0.26978739  0.57729547  0.09472739     0.01800
C556        C  0.28436982  0.59170064  0.07744929    -0.16000
C557        C  0.29043104  0.61733890  0.08253938    -0.10800
C558        C  0.28131977  0.62894240  0.10529642     0.08500
C559        C  0.25038456  0.57297227  0.13877887     0.09600
S560        S  0.26186607  0.54482824  0.08591520    -0.25100
H561        H  0.29086586  0.58291077  0.05975560     0.19800
S562        S  0.28803462  0.66174997  0.11381042    -0.30800
H563        H  0.26108168  0.62288561  0.14077666     0.10200
C564        C  0.26486710  0.55431841  0.15196631     0.03400
C565        C  0.25255904  0.53855101  0.16990359    -0.13100
C566        C  0.22615584  0.54128566  0.17503167    -0.08800
C567        C  0.21221343  0.56134032  0.16325384     0.06800
C568        C  0.22442030  0.57681308  0.14504103    -0.13900
S569        S  0.29892892  0.55041163  0.14574093    -0.30800
H570        H  0.26326861  0.52334499  0.17916659     0.11100
S571        S  0.17904569  0.56837583  0.17089390    -0.27900
H572        H  0.21355767  0.59171481  0.13542598     0.08300
H573        H  0.31230799  0.66318234  0.10201457     0.26700
H574        H  0.30327346  0.53085429  0.16379532     0.21500
H575        H  0.18042736  0.56023856  0.19658246     0.26800
H576        H  0.23896452  0.54328443  0.10027720     0.15700
C577        C  0.12128962  0.36295648  0.74491195    -0.11600
C578        C  0.12065830  0.38890800  0.73821043     0.14900
C579        C  0.10200455  0.39778313  0.72070563     0.01800
C580        C  0.08298680  0.38101291  0.71202313    -0.16000
C581        C  0.08236804  0.35535971  0.72013218    -0.10800
C582        C  0.10246334  0.34595620  0.73589608     0.08500
C583        C  0.13680649  0.40684806  0.75290023     0.09600
S584        S  0.10053611  0.43064362  0.71008930    -0.25100
H585        H  0.06800055  0.38835921  0.69956541     0.19800
S586        S  0.10462402  0.31245555  0.74444498    -0.30800
H587        H  0.13593195  0.35633532  0.75813254     0.10200
C588        C  0.12590569  0.42135099  0.77285006     0.03400
C589        C  0.14143723  0.43827225  0.78658848    -0.13100
C590        C  0.16792304  0.44075445  0.78129659    -0.08800
C591        C  0.17897851  0.42536250  0.76178502     0.06800
C592        C  0.16321388  0.40881658  0.74761155    -0.13900
S593        S  0.09222997  0.41788587  0.78124467    -0.30800
H594        H  0.13273466  0.44975640  0.80153099     0.11100
S595        S  0.21297904  0.42489026  0.75478185    -0.27900
H596        H  0.17160691  0.39712044  0.73261568     0.08300
H597        H  0.12709162  0.31421406  0.75941158     0.26700
H598        H  0.09188495  0.43588623  0.80128136     0.21500
H599        H  0.22043287  0.42440910  0.78073124     0.26800
H600        H  0.12690600  0.43593166  0.71327934     0.15700
C601        C  0.28135617  0.61702986  0.92928325    -0.11600
C602        C  0.28036976  0.59022707  0.93011411     0.14900
C603        C  0.29155702  0.57708302  0.95098319     0.01800
C604        C  0.30305026  0.59103109  0.97075126    -0.16000
C605        C  0.30334669  0.61791542  0.97044146    -0.10800
C606        C  0.29288951  0.63105568  0.94913133     0.08500
C607        C  0.26758440  0.57643079  0.90895294     0.09600
S608        S  0.29167010  0.54261193  0.95366134    -0.25100
H609        H  0.31130010  0.58077653  0.98685598     0.19800
S610        S  0.29551825  0.66544993  0.94621668    -0.30800
H611        H  0.27313674  0.62687417  0.91293570     0.10200
C612        C  0.24054111  0.57578501  0.90701236     0.03400
C613        C  0.22904078  0.56068300  0.88803810    -0.13100
C614        C  0.24398730  0.54586774  0.87111606    -0.08800
C615        C  0.27120415  0.54697219  0.87293637     0.06800
C616        C  0.28264629  0.56254594  0.89152829    -0.13900
S617        S  0.22064753  0.59300961  0.92964075    -0.30800
H618        H  0.20822553  0.55991631  0.88678296     0.11100
S619        S  0.29240347  0.52742336  0.85384181    -0.27900
H620        H  0.30346163  0.56293111  0.89324437     0.08300
H621        H  0.28422043  0.66759805  0.92179619     0.26700
H622        H  0.19671359  0.58639896  0.91886767     0.21500
H623        H  0.27821193  0.50486730  0.85807226     0.26800
H624        H  0.26817916  0.53842825  0.94094740     0.15700
C625        C  0.29803193  0.37713991  0.92069422    -0.11600
C626        C  0.29316552  0.40347899  0.92130922     0.14900
C627        C  0.30239173  0.41830498  0.94199154     0.01800
C628        C  0.31695714  0.40655356  0.96117396    -0.16000
C629        C  0.32181153  0.38013384  0.96067276    -0.10800
C630        C  0.31242128  0.36533729  0.93996870     0.08500
C631        C  0.27857359  0.41494589  0.90000349     0.09600
S632        S  0.29579200  0.45207784  0.94537936    -0.25100
H633        H  0.32380586  0.41800627  0.97709612     0.19800
S634        S  0.31910731  0.33168097  0.93625999    -0.30800
H635        H  0.29102693  0.36580761  0.90475021     0.10200
C636        C  0.29033915  0.43179295  0.88243218     0.03400
C637        C  0.27507300  0.44429983  0.86421409    -0.13100
C638        C  0.24834891  0.44013641  0.86320734    -0.08800
C639        C  0.23716203  0.42127837  0.87918630     0.06800
C640        C  0.25233162  0.40913669  0.89764403    -0.13900
S641        S  0.32462859  0.43777108  0.88357431    -0.30800
H642        H  0.28378805  0.45833013  0.85161354     0.11100
S643        S  0.20384431  0.41172171  0.87682436    -0.27900
H644        H  0.24354422  0.39541653  0.91059304     0.08300
H645        H  0.34454556  0.33344991  0.94532792     0.26700
H646        H  0.32566188  0.45470700  0.86259702     0.21500
H647        H  0.20188835  0.41627472  0.85027819     0.26800
H648        H  0.27196273  0.45191395  0.93258935     0.15700
C649        C  0.40078349  0.69475464  0.12777696    -0.11600
C650        C  0.40509419  0.72097623  0.12398220     0.14900
C651        C  0.39189165  0.73384148  0.10411558     0.01800
C652        C  0.37581098  0.72001482  0.08767271    -0.16000
C653        C  0.37246224  0.69350330  0.09059432    -0.10800
C654        C  0.38442352  0.68094378  0.11152234     0.08500
C655        C  0.42543079  0.73388238  0.13907576     0.09600
S656        S  0.39572326  0.76764025  0.09802488    -0.25100
H657        H  0.36672794  0.72988927  0.07177687     0.19800
S658        S  0.37980154  0.64742911  0.11853845    -0.30800
H659        H  0.41073312  0.68486709  0.14313932     0.10200
C660        C  0.42193402  0.74057169  0.16504360     0.03400
C661        C  0.44130012  0.75445354  0.17778043    -0.13100
C662        C  0.46397820  0.76169035  0.16493079    -0.08800
C663        C  0.46796480  0.75356716  0.13939600     0.06800
C664        C  0.44860098  0.74004302  0.12670456    -0.13900
S665        S  0.39225262  0.73276996  0.18139030    -0.30800
H666        H  0.43832009  0.76067351  0.19736541     0.11100
S667        S  0.49750239  0.75956871  0.12209942    -0.27900
H668        H  0.45152852  0.73436590  0.10692040     0.08300
H669        H  0.35446573  0.64609216  0.10916961     0.26700
H670        H  0.39936760  0.74253488  0.20549859     0.21500
H671        H  0.51363514  0.75793586  0.14370788     0.26800
H672        H  0.40094612  0.77460599  0.12353329     0.15700
C673        C  0.42631346  0.88850960  0.23255505    -0.11600
C674        C  0.42838951  0.89034582  0.25926846     0.14900
C675        C  0.44392491  0.87277396  0.27273917     0.01800
C676        C  0.45876982  0.85520143  0.25909230    -0.16000
C677        C  0.45813231  0.85428008  0.23214850    -0.10800
C678        C  0.44063672  0.87034909  0.21887586     0.08500
C679        C  0.41651181  0.91227042  0.27249997     0.09600
S680        S  0.44689835  0.87290624  0.30723667    -0.25100
H681        H  0.47172751  0.84284944  0.26969776     0.19800
S682        S  0.43547181  0.86857681  0.18475349    -0.30800
H683        H  0.41391630  0.90168484  0.22227495     0.10200
C684        C  0.43179026  0.93301872  0.28057828     0.03400
C685        C  0.42073865  0.95215611  0.29571231    -0.13100
C686        C  0.39470647  0.95099787  0.30293012    -0.08800
C687        C  0.37926331  0.93043397  0.29430149     0.06800
C688        C  0.39026441  0.91146688  0.27881759    -0.13900
S689        S  0.46545563  0.93497615  0.27177461    -0.30800
H690        H  0.43244390  0.96809111  0.30208456     0.11100
S691        S  0.34614126  0.92625342  0.30392488    -0.27900
H692        H  0.37866892  0.89531498  0.27275637     0.08300
H693        H  0.43784600  0.84175676  0.18358952     0.26700
H694        H  0.47106598  0.95758972  0.28528493     0.21500
H695        H  0.34988137  0.93456837  0.32931456     0.26800
H696        H  0.42198620  0.88216006  0.31233743     0.15700
C697        C  0.75234304  0.11391505  0.46222310    -0.11600
C698        C  0.76608595  0.09922645  0.44432131     0.14900
C699        C  0.79324249  0.09968471  0.44458681     0.01800
C700        C  0.80604525  0.11443722  0.46291421    -0.16000
C701        C  0.79244280  0.12841215  0.48157592    -0.10800
C702        C  0.76514949  0.12817659  0.48104816     0.08500
C703        C  0.75164856  0.08245203  0.42661643     0.09600
S704        S  0.81270109  0.08145806  0.42246931    -0.25100
H705        H  0.82693813  0.11455628  0.46289789     0.19800
S706        S  0.74550979  0.14406726  0.50470225    -0.30800
H707        H  0.73145570  0.11341738  0.46214120     0.10200
C708        C  0.74057330  0.05943101  0.43543428     0.03400
C709        C  0.72729588  0.04373372  0.41817857    -0.13100
C710        C  0.72527058  0.05032242  0.39217346    -0.08800
C711        C  0.73646757  0.07335588  0.38330914     0.06800
C712        C  0.74964545  0.08913396  0.40062022    -0.13900
S713        S  0.74419146  0.04956057  0.46847155    -0.30800
H714        H  0.71877624  0.02599111  0.42484156     0.11100
S715        S  0.73389298  0.08402538  0.35049917    -0.27900
H716        H  0.75824440  0.10681423  0.39386792     0.08300
H717        H  0.76044020  0.13585647  0.52568168     0.26700
H718        H  0.73288997  0.02522266  0.46581083     0.21500
H719        H  0.70929246  0.07362334  0.34611204     0.26800
H720        H  0.79590591  0.06045039  0.42043730     0.15700
C721        C  0.63020492  0.93371004  0.25957248    -0.11600
C722        C  0.61274018  0.91704848  0.27159801     0.14900
C723        C  0.61047984  0.91743709  0.29857845     0.01800
C724        C  0.62616625  0.93378788  0.31293142    -0.16000
C725        C  0.64384648  0.95038370  0.30104394    -0.10800
C726        C  0.64536748  0.95068881  0.27390390     0.08500
C727        C  0.59774350  0.89876273  0.25581975     0.09600
S728        S  0.58786699  0.89759262  0.31584940    -0.25100
H729        H  0.62447986  0.93355793  0.33365444     0.19800
S730        S  0.66518831  0.97298519  0.25630647    -0.30800
H731        H  0.63178451  0.93368693  0.23884029     0.10200
C732        C  0.57736699  0.90690259  0.23990706     0.03400
C733        C  0.56239175  0.88855865  0.22706099    -0.13100
C734        C  0.56730966  0.86223419  0.22988883    -0.08800
C735        C  0.58862165  0.85430599  0.24476828     0.06800
C736        C  0.60337033  0.87257867  0.25774793    -0.13900
S737        S  0.56947525  0.94048178  0.23715300    -0.30800
H738        H  0.54615111  0.89467772  0.21556347     0.11100
S739        S  0.59844992  0.82130908  0.24739128    -0.27900
H740        H  0.61934778  0.86635053  0.26958651     0.08300
H741        H  0.65981786  0.99395886  0.27234277     0.26700
H742        H  0.54859209  0.93757841  0.22022040     0.21500
H743        H  0.59158074  0.81470483  0.22214315     0.26800
H744        H  0.56881127  0.89737361  0.29669912     0.15700
C745        C  0.61935418  0.07686276  0.28087338    -0.11600
C746        C  0.63526805  0.09628808  0.27125947     0.14900
C747        C  0.66183470  0.09616312  0.27695545     0.01800
C748        C  0.67182622  0.07662248  0.29242971    -0.16000
C749        C  0.65581345  0.05717646  0.30214165    -0.10800
C750        C  0.62934323  0.05714299  0.29585581     0.08500
C751        C  0.62296027  0.11629562  0.25562884     0.09600
S752        S  0.68381875  0.12027317  0.26524897    -0.25100
H753        H  0.69219349  0.07665564  0.29702867     0.19800
S754        S  0.60747627  0.03196380  0.30525095    -0.30800
H755        H  0.59897717  0.07687380  0.27626618     0.10200
C756        C  0.61416282  0.11085597  0.23075619     0.03400
C757        C  0.59806520  0.12836839  0.21834897    -0.13100
C758        C  0.59063568  0.15143012  0.23023320    -0.08800
C759        C  0.60166481  0.15775709  0.25433400     0.06800
C760        C  0.61725173  0.13989300  0.26691608    -0.13900
S761        S  0.62275852  0.08114104  0.21521642    -0.30800
H762        H  0.59044764  0.12346291  0.19968273     0.11100
S763        S  0.59672414  0.18790836  0.27034166    -0.27900
H764        H  0.62448978  0.14413426  0.28593899     0.08300
H765        H  0.62526387  0.01201143  0.30153111     0.26700
H766        H  0.61073455  0.08626914  0.19159554     0.21500
H767        H  0.60110119  0.20253488  0.24805306     0.26800
H768        H  0.66994555  0.12660557  0.24299832     0.15700
C769        C  0.32442429  0.08583026  0.63965981    -0.11600
C770        C  0.30945525  0.10407658  0.65255372     0.14900
C771        C  0.30834448  0.10368358  0.67960709     0.01800
C772        C  0.32185734  0.08481284  0.69306474    -0.16000
C773        C  0.33678538  0.06646553  0.68013119    -0.10800
C774        C  0.33790764  0.06700593  0.65303092     0.08500
C775        C  0.29278665  0.12081844  0.63689764     0.09600
S776        S  0.29009917  0.12663934  0.69800354    -0.25100
H777        H  0.32093330  0.08463935  0.71383486     0.19800
S778        S  0.35436809  0.04314107  0.63417455    -0.30800
H779        H  0.32463962  0.08553615  0.61886494     0.10200
C780        C  0.30313318  0.13743177  0.61818317     0.03400
C781        C  0.28656137  0.14916906  0.60054097    -0.13100
C782        C  0.25991297  0.14466666  0.60142800    -0.08800
C783        C  0.24946358  0.12998449  0.62170458     0.06800
C784        C  0.26601786  0.11778017  0.63884341    -0.13900
S785        S  0.33744235  0.14312198  0.61633943    -0.30800
H786        H  0.29449513  0.16075668  0.58521033     0.11100
S787        S  0.21526730  0.12604944  0.62670163    -0.27900
H788        H  0.25800244  0.10524889  0.65339628     0.08300
H789        H  0.34586646  0.02248919  0.64931582     0.26700
H790        H  0.33677465  0.16007981  0.59536748     0.21500
H791        H  0.20851021  0.15034070  0.61712450     0.26800
H792        H  0.29169643  0.14659424  0.67994199     0.15700
C793        C  0.27144654  0.91134529  0.62458634    -0.11600
C794        C  0.29710787  0.90523097  0.62983758     0.14900
C795        C  0.30838585  0.88349808  0.61846784     0.01800
C796        C  0.29384460  0.86868190  0.60151617    -0.16000
C797        C  0.26812193  0.87494023  0.59563286    -0.10800
C798        C  0.25674962  0.89648740  0.60786898     0.08500
C799        C  0.31185335  0.92287531  0.64612693     0.09600
S800        S  0.34151415  0.87432482  0.62370981    -0.25100
H801        H  0.30302665  0.85242496  0.59241784     0.19800
S802        S  0.22387482  0.90662117  0.60321894    -0.30800
H803        H  0.26287124  0.92808129  0.63344225     0.10200
C804        C  0.32611773  0.94305702  0.63528173     0.03400
C805        C  0.33933374  0.95989436  0.65141791    -0.13100
C806        C  0.33815254  0.95717770  0.67819351    -0.08800
C807        C  0.32400475  0.93670804  0.68902422     0.06800
C808        C  0.31081352  0.91984998  0.67279414    -0.13900
S809        S  0.32702931  0.94760492  0.60092559    -0.30800
H810        H  0.35025512  0.97552948  0.64316975     0.11100
S811        S  0.32371250  0.93108657  0.72325633    -0.27900
H812        H  0.29977336  0.90413578  0.68075774     0.08300
H813        H  0.21365513  0.88205859  0.60709960     0.26700
H814        H  0.34112620  0.97061391  0.60109585     0.21500
H815        H  0.30841882  0.90885233  0.72285544     0.26800
H816        H  0.34456544  0.88583027  0.64783301     0.15700
C817        C  0.27274982  0.89466367  0.44399950    -0.11600
C818        C  0.29766918  0.90332603  0.44977148     0.14900
C819        C  0.30930124  0.89617853  0.47320715     0.01800
C820        C  0.29586784  0.88027876  0.49013301    -0.16000
C821        C  0.27064283  0.87240462  0.48471695    -0.10800
C822        C  0.25903458  0.87934525  0.46131659     0.08500
C823        C  0.31026882  0.92082561  0.43142785     0.09600
S824        S  0.34057312  0.90751795  0.48323171    -0.25100
H825        H  0.30466441  0.87503738  0.50824635     0.19800
S826        S  0.22712594  0.86809774  0.45315653    -0.30800
H827        H  0.26401953  0.90019156  0.42596582     0.10200
C828        C  0.33229307  0.91363321  0.41730473     0.03400
C829        C  0.34365428  0.93140476  0.40058370    -0.13100
C830        C  0.33280365  0.95574890  0.39709348    -0.08800
C831        C  0.31032796  0.96256166  0.41071119     0.06800
C832        C  0.29948860  0.94517042  0.42792630    -0.13900
S833        S  0.34544857  0.88172920  0.42001143    -0.30800
H834        H  0.36081559  0.92628741  0.38991173     0.11100
S835        S  0.29574249  0.99373904  0.40816930    -0.27900
H836        H  0.28252775  0.95065625  0.43877097     0.08300
H837        H  0.22556503  0.88011293  0.42904669     0.26700
H838        H  0.36567850  0.88504187  0.40232393     0.21500
H839        H  0.28998614  0.99088469  0.38198231     0.26800
H840        H  0.33956016  0.93111944  0.47030763     0.15700
C841        C  0.18999410  0.76542645  0.44629873    -0.11600
C842        C  0.16301699  0.76623086  0.44756100     0.14900
C843        C  0.15087424  0.77993710  0.46750349     0.01800
C844        C  0.16590454  0.79319165  0.48518456    -0.16000
C845        C  0.19294009  0.79261187  0.48400065    -0.10800
C846        C  0.20509840  0.77869661  0.46411234     0.08500
C847        C  0.14782666  0.75262040  0.42799789     0.09600
S848        S  0.11632711  0.78104342  0.47172747    -0.25100
H849        H  0.15631806  0.80359809  0.50043488     0.19800
S850        S  0.23951929  0.77823435  0.45951218    -0.30800
H851        H  0.19929723  0.75492236  0.43094706     0.10200
C852        C  0.13251554  0.76600524  0.41016820     0.03400
C853        C  0.11488951  0.75241907  0.39512260    -0.13100
C854        C  0.11250460  0.72573691  0.39745167    -0.08800
C855        C  0.12985340  0.71221423  0.41336818     0.06800
C856        C  0.14709044  0.72583515  0.42873111    -0.13900
S857        S  0.13477152  0.80041698  0.40728042    -0.30800
H858        H  0.10196809  0.76276542  0.38254088     0.11100
S859        S  0.13099639  0.67774092  0.41490039    -0.27900
H860        H  0.15945426  0.71554751  0.44194093     0.08300
H861        H  0.24297645  0.80431742  0.46531979     0.26700
H862        H  0.11575673  0.80331488  0.38828826     0.21500
H863        H  0.12376176  0.67391615  0.38917462     0.26800
H864        H  0.11125273  0.75650368  0.46192774     0.15700
C865        C  0.15476602  0.57902278  0.28283762    -0.11600
C866        C  0.12792478  0.57781167  0.28574728     0.14900
C867        C  0.11420913  0.55724449  0.27470256     0.01800
C868        C  0.12760535  0.53841790  0.26108182    -0.16000
C869        C  0.15454094  0.53930666  0.25858080    -0.10800
C870        C  0.16818542  0.56018634  0.26925964     0.08500
C871        C  0.11479448  0.59865457  0.29981786     0.09600
S872        S  0.07973492  0.55368492  0.27759412    -0.25100
H873        H  0.11693001  0.52261896  0.25281227     0.19800
S874        S  0.20238849  0.56479167  0.26510582    -0.30800
H875        H  0.16527481  0.59507246  0.29083502     0.10200
C876        C  0.11823706  0.60186401  0.32642245     0.03400
C877        C  0.10544579  0.62184536  0.33906243    -0.13100
C878        C  0.08895711  0.63852390  0.32572913    -0.08800
C879        C  0.08499053  0.63470831  0.29913317     0.06800
C880        C  0.09838454  0.61524667  0.28641464    -0.13900
S881        S  0.13815263  0.57991609  0.34445308    -0.30800
H882        H  0.10821782  0.62445340  0.35947348     0.11100
S883        S  0.06175415  0.65260379  0.28071221    -0.27900
H884        H  0.09541908  0.61249373  0.26602640     0.08300
H885        H  0.20289918  0.55650998  0.23945810     0.26700
H886        H  0.13423043  0.59111920  0.36866420     0.21500
H887        H  0.04265142  0.65195070  0.29988688     0.26800
H888        H  0.07759861  0.56513473  0.30189245     0.15700
C889        C  0.91246389  0.60583181  0.29122663    -0.11600
C890        C  0.93940385  0.60652892  0.29027169     0.14900
C891        C  0.95298634  0.58763257  0.27648094     0.01800
C892        C  0.93927426  0.56895150  0.26320777    -0.16000
C893        C  0.91224448  0.56796748  0.26419121    -0.10800
C894        C  0.89863892  0.58669906  0.27842482     0.08500
C895        C  0.95296245  0.62676857  0.30440665     0.09600
S896        S  0.98775243  0.58589287  0.27551994    -0.25100
H897        H  0.94991797  0.55453105  0.25266504     0.19800
S898        S  0.86382889  0.58715304  0.27992198    -0.30800
H899        H  0.90235600  0.62039461  0.30205134     0.10200
C900        C  0.96692693  0.64597738  0.29156550     0.03400
C901        C  0.98294588  0.66213784  0.30574276    -0.13100
C902        C  0.98499150  0.65963343  0.33254494    -0.08800
C903        C  0.96853858  0.64224364  0.34548125     0.06800
C904        C  0.95306461  0.62571587  0.33121983    -0.13900
S905        S  0.96503424  0.64928833  0.25710645    -0.30800
H906        H  0.99495600  0.67580074  0.29567372     0.11100
S907        S  0.96629519  0.64001881  0.37991940    -0.27900
H908        H  0.94152535  0.61143869  0.34105038     0.08300
H909        H  0.86126414  0.60975181  0.29434034     0.26700
H910        H  0.98157268  0.67052837  0.25495374     0.21500
H911        H  0.96919966  0.66651056  0.38394039     0.26800
H912        H  0.99199683  0.59589829  0.30017054     0.15700
C913        C  0.94885203  0.37004032  0.30380787    -0.11600
C914        C  0.95520148  0.39576808  0.30807900     0.14900
C915        C  0.97471107  0.40200417  0.32575299     0.01800
C916        C  0.98752979  0.38244529  0.33866500    -0.16000
C917        C  0.98191243  0.35654051  0.33393260    -0.10800
C918        C  0.96205003  0.35027325  0.31641838     0.08500
C919        C  0.94114200  0.41577255  0.29389948     0.09600
S920        S  0.98467757  0.43447365  0.33220233    -0.25100
H921        H  0.00274141  0.38761111  0.35191357     0.19800
S922        S  0.95271692  0.31749834  0.31033039    -0.30800
H923        H  0.93360449  0.36555856  0.29037745     0.10200
C924        C  0.94461809  0.41899674  0.26731005     0.03400
C925        C  0.93164260  0.43881231  0.25471943    -0.13100
C926        C  0.91557501  0.45578151  0.26823637    -0.08800
C927        C  0.91272372  0.45281795  0.29507898     0.06800
C928        C  0.92507340  0.43253210  0.30747938    -0.13900
S929        S  0.96620473  0.39841850  0.24953331    -0.30800
H930        H  0.93390383  0.44097690  0.23418334     0.11100
S931        S  0.89501918  0.47496805  0.31487634    -0.27900
H932        H  0.92284184  0.43024802  0.32803234     0.08300
H933        H  0.93151521  0.32283732  0.29441031     0.26700
H934        H  0.96325423  0.41046828  0.22557227     0.21500
H935        H  0.90386294  0.49691470  0.30186377     0.26800
H936        H  0.98051030  0.44378862  0.30723662     0.15700
C937        C  0.79593148  0.38046272  0.13504556    -0.11600
C938        C  0.79851238  0.40693854  0.13179288     0.14900
C939        C  0.78747031  0.41903838  0.11022846     0.01800
C940        C  0.77361376  0.40441842  0.09262982    -0.16000
C941        C  0.77108888  0.37787468  0.09576004    -0.10800
C942        C  0.78207607  0.36582834  0.11743633     0.08500
C943        C  0.81236183  0.42154351  0.15148412     0.09600
S944        S  0.79046967  0.45291759  0.10399411    -0.25100
H945        H  0.76528364  0.41374295  0.07600350     0.19800
S946        S  0.77792296  0.33226833  0.12448567    -0.30800
H947        H  0.80420977  0.37128234  0.15177632     0.10200
C948        C  0.79913771  0.43738832  0.16886829     0.03400
C949        C  0.81328665  0.45282458  0.18561981    -0.13100
C950        C  0.84038237  0.45244030  0.18548525    -0.08800
C951        C  0.85341617  0.43488887  0.16939648     0.06800
C952        C  0.83926054  0.41990714  0.15232663    -0.13900
S953        S  0.76431608  0.43826071  0.16935767    -0.30800
H954        H  0.80319557  0.46599133  0.19811594     0.11100
S955        S  0.88785394  0.43028269  0.16998427    -0.27900
H956        H  0.84927043  0.40707049  0.13938223     0.08300
H957        H  0.75222656  0.33114015  0.11595311     0.26700
H958        H  0.76180975  0.45514535  0.19020994     0.21500
H959        H  0.89020165  0.43383212  0.19664403     0.26800
H960        H  0.81451405  0.45618481  0.11592974     0.15700
C961        C  0.61161864  0.25463061  0.12517141    -0.11600
C962        C  0.63092855  0.26442509  0.14115384     0.14900
C963        C  0.62831182  0.26241657  0.16800236     0.01800
C964        C  0.60680638  0.24986992  0.17823559    -0.16000
C965        C  0.58800539  0.23901460  0.16219144    -0.10800
C966        C  0.59009861  0.24223459  0.13534317     0.08500
C967        C  0.65303953  0.27717399  0.12884682     0.09600
S968        S  0.65196235  0.27474015  0.19011754    -0.25100
H969        H  0.60533680  0.24761200  0.19885564     0.19800
S970        S  0.56567557  0.23184273  0.11306562    -0.30800
H971        H  0.61327826  0.25686806  0.10455428     0.10200
C972        C  0.67114264  0.26304164  0.11455228     0.03400
C973        C  0.68936236  0.27604256  0.09960960    -0.13100
C974        C  0.68983126  0.30290057  0.09882056    -0.08800
C975        C  0.67319603  0.31690467  0.11515081     0.06800
C976        C  0.65466317  0.30390240  0.12960958    -0.13900
S977        S  0.67048977  0.22845817  0.11479351    -0.30800
H978        H  0.70233896  0.26525461  0.08745835     0.11100
S979        S  0.67467640  0.35123770  0.11850662    -0.27900
H980        H  0.64106453  0.31468353  0.14111909     0.08300
H981        H  0.54478671  0.23739050  0.12939518     0.26700
H982        H  0.69190673  0.22477409  0.09864358     0.21500
H983        H  0.70155934  0.35281437  0.11513861     0.26800
H984        H  0.67338763  0.27201200  0.17382783     0.15700
C985        C  0.42973466  0.08418355  0.80233743    -0.11600
C986        C  0.43823697  0.10594668  0.78895570     0.14900
C987        C  0.43217940  0.10866614  0.76271561     0.01800
C988        C  0.41915939  0.08895074  0.75015102    -0.16000
C989        C  0.41120436  0.06693779  0.76341566    -0.10800
C990        C  0.41616361  0.06473467  0.78993728     0.08500
C991        C  0.45632108  0.12339887  0.80204536     0.09600
S992        S  0.44051118  0.13674120  0.74429267    -0.25100
H993        H  0.41494805  0.09090353  0.72987753     0.19800
S994        S  0.40712560  0.03716297  0.80881367    -0.30800
H995        H  0.43471668  0.08180032  0.82238546     0.10200
C996        C  0.44970777  0.13581368  0.82511685     0.03400
C997        C  0.46883584  0.14877261  0.83885808    -0.13100
C998        C  0.49416080  0.15019589  0.82956747    -0.08800
C999        C  0.50048903  0.13869337  0.80592312     0.06800
C1000       C  0.48153256  0.12537496  0.79247873    -0.13900
S1001       S  0.41692069  0.13548612  0.83685011    -0.30800
H1002       H  0.46409473  0.15779886  0.85690139     0.11100
S1003       S  0.53259917  0.13901205  0.79259245    -0.27900
H1004       H  0.48673069  0.11557117  0.77490575     0.08300
H1005       H  0.40988973  0.01903118  0.78915962     0.26700
H1006       H  0.42111928  0.15106760  0.85843702     0.21500
H1007       H  0.54551139  0.13727723  0.81617382     0.26800
H1008       H  0.44039208  0.15380745  0.76513755     0.15700
C1009       C  0.64603989  0.24005898  0.92223615    -0.11600
C1010       C  0.63861848  0.24868541  0.94657140     0.14900
C1011       C  0.61395240  0.24260910  0.95625600     0.01800
C1012       C  0.59732346  0.22776112  0.94144270    -0.16000
C1013       C  0.60451829  0.21958348  0.91686086    -0.10800
C1014       C  0.62931070  0.22539856  0.90733106     0.08500
C1015       C  0.65714600  0.26380835  0.96145642     0.09600
S1016       S  0.60235205  0.25362511  0.98698500    -0.25100
H1017       H  0.57820560  0.22348051  0.94869747     0.19800
S1018       S  0.64095402  0.21404512  0.87676919    -0.30800
H1019       H  0.66510376  0.24454573  0.91497407     0.10200
C1020       C  0.67044800  0.25311441  0.98237533     0.03400
C1021       C  0.68715266  0.26857903  0.99656915    -0.13100
C1022       C  0.69060686  0.29449634  0.99027987    -0.08800
C1023       C  0.67793527  0.30486136  0.96866755     0.06800
C1024       C  0.66125496  0.28939369  0.95454435    -0.13900
S1025       S  0.66592982  0.21992029  0.99109987    -0.30800
H1026       H  0.69690830  0.26070785  0.01315175     0.11100
S1027       S  0.68248396  0.33736718  0.95784709    -0.27900
H1028       H  0.65121978  0.29737190  0.93815513     0.08300
H1029       H  0.62723600  0.19081124  0.87726369     0.26700
H1030       H  0.68227214  0.21999879  0.01260905     0.21500
H1031       H  0.70828970  0.33933742  0.96576675     0.26800
H1032       H  0.61674571  0.27640138  0.98769018     0.15700
C1033       C  0.45678188  0.24597258  0.92432067    -0.11600
C1034       C  0.46336716  0.27198971  0.92495037     0.14900
C1035       C  0.48660601  0.28021903  0.91348625     0.01800
C1036       C  0.50286817  0.26217109  0.90203488    -0.16000
C1037       C  0.49636267  0.23607437  0.90165241    -0.10800
C1038       C  0.47272135  0.22805426  0.91247390     0.08500
C1039       C  0.44630410  0.28938260  0.93941953     0.09600
S1040       S  0.49675863  0.31324683  0.91316875    -0.25100
H1041       H  0.52099460  0.26848447  0.89382294     0.19800
S1042       S  0.46137734  0.19546404  0.91121227    -0.30800
H1043       H  0.43900979  0.23956264  0.93321445     0.10200
C1044       C  0.42030222  0.29277388  0.93236680     0.03400
C1045       C  0.40364243  0.30577840  0.94897973    -0.13100
C1046       C  0.41256979  0.31582111  0.97224678    -0.08800
C1047       C  0.43884824  0.31325932  0.97877254     0.06800
C1048       C  0.45544635  0.30016967  0.96226432    -0.13900
S1049       S  0.40835572  0.28056958  0.90221829    -0.30800
H1050       H  0.38353775  0.30797045  0.94396659     0.11100
S1051       S  0.45176134  0.32414216  0.00886884    -0.27900
H1052       H  0.47533077  0.29720562  0.96788913     0.08300
H1053       H  0.47152136  0.19073593  0.88668259     0.26700
H1054       H  0.38272822  0.28884839  0.90521003     0.21500
H1055       H  0.43037588  0.31564918  0.02307887     0.26800
H1056       H  0.47185871  0.32385033  0.91356247     0.15700
C1057       C  0.91877907  0.77857215  0.44325916    -0.11600
C1058       C  0.94383610  0.78865490  0.44340253     0.14900
C1059       C  0.94870685  0.81163294  0.45669389     0.01800
C1060       C  0.92890693  0.82304930  0.47086100    -0.16000
C1061       C  0.90392736  0.81248780  0.47171324    -0.10800
C1062       C  0.89871564  0.79024264  0.45707405     0.08500
C1063       C  0.96442041  0.77423218  0.42999710     0.09600
S1064       S  0.97977449  0.82719685  0.45664346    -0.25100
H1065       H  0.93329595  0.84017564  0.48171562     0.19800
S1066       S  0.86666049  0.77679643  0.45508212    -0.30800
H1067       H  0.91510416  0.76123612  0.43249954     0.10200
C1068       C  0.98361077  0.76077983  0.44361771     0.03400
C1069       C  0.00152019  0.74581756  0.43009857    -0.13100
C1070       C  0.00051455  0.74378908  0.40323891    -0.08800
C1071       C  0.98112364  0.75726994  0.38973076     0.06800
C1072       C  0.96359205  0.77253361  0.40319859    -0.13900
S1073       S  0.98450477  0.76155533  0.47826078    -0.30800
H1074       H  0.01613143  0.73529050  0.44051240     0.11100
S1075       S  0.97627395  0.75420169  0.35564231    -0.27900
H1076       H  0.94855941  0.78249848  0.39277665     0.08300
H1077       H  0.87300340  0.75535851  0.44004566     0.26700
H1078       H  0.00732019  0.74731228  0.48119407     0.21500
H1079       H  0.97945856  0.72744662  0.35542834     0.26800
H1080       H  0.98794545  0.81793442  0.43267785     0.15700
C1081       C  0.79250697  0.90211253  0.43494992    -0.11600
C1082       C  0.76622467  0.89722432  0.43888202     0.14900
C1083       C  0.75864313  0.87958165  0.45796822     0.01800
C1084       C  0.77743730  0.86817945  0.47346160    -0.16000
C1085       C  0.80375131  0.87378387  0.47022585    -0.10800
C1086       C  0.81137807  0.89057003  0.45033552     0.08500
C1087       C  0.74744166  0.91180714  0.42333718     0.09600
S1088       S  0.72539884  0.87127835  0.46392555    -0.25100
H1089       H  0.77138273  0.85525672  0.48859461     0.19800
S1090       S  0.84502966  0.89683662  0.44382062    -0.30800
H1091       H  0.79813980  0.91539874  0.41999628     0.10200
C1092       C  0.73366828  0.93262214  0.43374474     0.03400
C1093       C  0.71830944  0.94772313  0.41758481    -0.13100
C1094       C  0.71678592  0.94264146  0.39118583    -0.08800
C1095       C  0.72951902  0.92095934  0.38112311     0.06800
C1096       C  0.74492316  0.90596903  0.39722391    -0.13900
S1097       S  0.73716648  0.94112808  0.46714851    -0.30800
H1098       H  0.70869388  0.96446197  0.42523164     0.11100
S1099       S  0.72679411  0.91142495  0.34800360    -0.27900
H1100       H  0.75531002  0.88980193  0.38930123     0.08300
H1101       H  0.84130445  0.91393941  0.42329638     0.26700
H1102       H  0.71973785  0.96175494  0.46702115     0.21500
H1103       H  0.70166124  0.92094635  0.34455944     0.26800
H1104       H  0.71631655  0.87642815  0.43906927     0.15700
C1105       C  0.94532501  0.74448092  0.62661775    -0.11600
C1106       C  0.94950142  0.77086887  0.62882679     0.14900
C1107       C  0.96858404  0.78004351  0.64573211     0.01800
C1108       C  0.98389365  0.76253182  0.65915361    -0.16000
C1109       C  0.98030416  0.73602704  0.65633109    -0.10800
C1110       C  0.96022099  0.72699685  0.64040571     0.08500
C1111       C  0.93401019  0.78802243  0.61253015     0.09600
S1112       S  0.97485406  0.81368620  0.65041940    -0.25100
H1113       H  0.99913239  0.76966604  0.67142004     0.19800
S1114       S  0.95211151  0.69356115  0.63733318    -0.30800
H1115       H  0.93033925  0.73746718  0.61396690     0.10200
C1116       C  0.94395047  0.79808641  0.58945652     0.03400
C1117       C  0.92769261  0.81215316  0.57324788    -0.13100
C1118       C  0.90170390  0.81593489  0.57961149    -0.08800
C1119       C  0.89214339  0.80676397  0.60325173     0.06800
C1120       C  0.90831883  0.79268096  0.61934803    -0.13900
S1121       S  0.97680609  0.79161682  0.57994908    -0.30800
H1122       H  0.93482382  0.81909556  0.55498409     0.11100
S1123       S  0.85953823  0.81242839  0.61383389    -0.27900
H1124       H  0.90079128  0.78503866  0.63718745     0.08300
H1125       H  0.95712408  0.68749750  0.66316505     0.26700
H1126       H  0.97602705  0.80492299  0.55648555     0.21500
H1127       H  0.85688965  0.83619347  0.60140363     0.26800
H1128       H  0.94994550  0.82237019  0.64444296     0.15700
C1129       C  0.11521512  0.74152961  0.62065137    -0.11600
C1130       C  0.13593264  0.74876134  0.63624383     0.14900
C1131       C  0.13461761  0.74476789  0.66295874     0.01800
C1132       C  0.11252801  0.73360186  0.67349390    -0.16000
C1133       C  0.09191839  0.72596251  0.65781768    -0.10800
C1134       C  0.09314719  0.73046295  0.63113032     0.08500
C1135       C  0.15727384  0.76271128  0.62401104     0.09600
S1136       S  0.16047506  0.75319448  0.68445319    -0.25100
H1137       H  0.11170766  0.73028242  0.69399841     0.19800
S1138       S  0.06670554  0.72406087  0.60963704    -0.30800
H1139       H  0.11594466  0.74532728  0.60020989     0.10200
C1140       C  0.17392459  0.75053152  0.60654005     0.03400
C1141       C  0.19088695  0.76539332  0.59186157    -0.13100
C1142       C  0.19140762  0.79215371  0.59440537    -0.08800
C1143       C  0.17617585  0.80394177  0.61351461     0.06800
C1144       C  0.15899832  0.78916253  0.62783694    -0.13900
S1145       S  0.17299701  0.71619646  0.60251105    -0.30800
H1146       H  0.20284330  0.75628313  0.57749161     0.11100
S1147       S  0.17810517  0.83756236  0.62077519    -0.27900
H1148       H  0.14643278  0.79840263  0.64163416     0.08300
H1149       H  0.04733526  0.73116268  0.62716613     0.26700
H1150       H  0.19270897  0.71466289  0.58402589     0.21500
H1151       H  0.20490688  0.83875058  0.61679901     0.26800
H1152       H  0.18050353  0.75056296  0.66646151     0.15700
C1153       C  0.12282551  0.62997580  0.74828422    -0.11600
C1154       C  0.11702695  0.60379194  0.74862913     0.14900
C1155       C  0.09437243  0.59483662  0.73667624     0.01800
C1156       C  0.07819562  0.61225326  0.72428921    -0.16000
C1157       C  0.08376046  0.63852794  0.72422349    -0.10800
C1158       C  0.10656672  0.64741553  0.73601980     0.08500
C1159       C  0.13486201  0.58632622  0.76182552     0.09600
S1160       S  0.08483844  0.56160206  0.73686639    -0.25100
H1161       H  0.06068045  0.60534538  0.71533307     0.19800
S1162       S  0.11655386  0.68046260  0.73507591    -0.30800
H1163       H  0.14034004  0.63678265  0.75731506     0.10200
C1164       C  0.15200012  0.57053797  0.74813859     0.03400
C1165       C  0.16743860  0.55312056  0.76161123    -0.13100
C1166       C  0.16618064  0.55144968  0.78850027    -0.08800
C1167       C  0.15005299  0.56853241  0.80214021     0.06800
C1168       C  0.13434797  0.58549861  0.78863371    -0.13900
S1169       S  0.15403673  0.57251103  0.71359729    -0.30800
H1170       H  0.17997649  0.54027387  0.75113033     0.11100
S1171       S  0.14919173  0.57033973  0.83667329    -0.27900
H1172       H  0.12156848  0.59817979  0.79908146     0.08300
H1173       H  0.10733447  0.68498745  0.71012652     0.26700
H1174       H  0.17431440  0.55488845  0.71060572     0.21500
H1175       H  0.17581588  0.56624660  0.83984964     0.26800
H1176       H  0.09603520  0.55525272  0.76055934     0.15700
C1177       C  0.74529683  0.90283471  0.65218773    -0.11600
C1178       C  0.77145431  0.90751353  0.64728160     0.14900
C1179       C  0.78520835  0.92450776  0.66322584     0.01800
C1180       C  0.77219602  0.93757147  0.68270323    -0.16000
C1181       C  0.74570335  0.93387212  0.68687800    -0.10800
C1182       C  0.73239404  0.91548559  0.67205042     0.08500
C1183       C  0.78344034  0.89582547  0.62439704     0.09600
S1184       S  0.81911650  0.93103511  0.65909358    -0.25100
H1185       H  0.78266567  0.95153648  0.69398558     0.19800
S1186       S  0.69911584  0.90716886  0.67761337    -0.30800
H1187       H  0.73479156  0.88948526  0.64021301     0.10200
C1188       C  0.78880694  0.86943323  0.62319070     0.03400
C1189       C  0.80093059  0.85945278  0.60132454    -0.13100
C1190       C  0.80794661  0.87539801  0.58074042    -0.08800
C1191       C  0.80139098  0.90165130  0.58157814     0.06800
C1192       C  0.78950375  0.91159825  0.60347225    -0.13900
S1193       S  0.78154342  0.84877309  0.65005090    -0.30800
H1194       H  0.80588243  0.83933610  0.60067630     0.11100
S1195       S  0.80686902  0.92324468  0.55510037    -0.27900
H1196       H  0.78479929  0.93180303  0.60419805     0.08300
H1197       H  0.69998881  0.91102272  0.70431623     0.26700
H1198       H  0.78962296  0.82577648  0.63856215     0.21500
H1199       H  0.80238929  0.90487050  0.53588812     0.26800
H1200       H  0.82562260  0.90690500  0.64907954     0.15700
C1201       C  0.61779842  0.09090544  0.83598381    -0.11600
C1202       C  0.63790015  0.10068764  0.82091818     0.14900
C1203       C  0.64073864  0.12740474  0.81826133     0.01800
C1204       C  0.62285623  0.14369089  0.82988607    -0.16000
C1205       C  0.60214699  0.13396778  0.84435114    -0.10800
C1206       C  0.59976973  0.10712686  0.84747770     0.08500
C1207       C  0.65319686  0.08249159  0.80551668     0.09600
S1208       S  0.66648395  0.14183125  0.79997527    -0.25100
H1209       H  0.62514757  0.16418647  0.82754283     0.19800
S1210       S  0.57323362  0.09207173  0.86398630    -0.30800
H1211       H  0.61532729  0.07035762  0.83762925     0.10200
C1212       C  0.67016306  0.06482353  0.81693829     0.03400
C1213       C  0.68227748  0.04636413  0.80157704    -0.13100
C1214       C  0.67780280  0.04532419  0.77499781    -0.08800
C1215       C  0.66186422  0.06409880  0.76351579     0.06800
C1216       C  0.64940666  0.08207600  0.77893625    -0.13900
S1217       S  0.67640581  0.06588137  0.85099507    -0.30800
H1218       H  0.69476187  0.03228585  0.81039962     0.11100
S1219       S  0.65723168  0.06685059  0.72934775    -0.27900
H1220       H  0.63658738  0.09591793  0.77014486     0.08300
H1221       H  0.55426035  0.10753901  0.85253726     0.26700
H1222       H  0.69431598  0.04567717  0.85161374     0.21500
H1223       H  0.68299755  0.06114526  0.72310549     0.26800
H1224       H  0.68424109  0.12178196  0.80335925     0.15700
C1225       C  0.76819863  0.07957517  0.67693324    -0.11600
C1226       C  0.76729478  0.07400367  0.65063054     0.14900
C1227       C  0.75592732  0.05097786  0.64220766     0.01800
C1228       C  0.74464435  0.03464548  0.66012267    -0.16000
C1229       C  0.74516504  0.04030338  0.68640517    -0.10800
C1230       C  0.75708085  0.06303265  0.69493587     0.08500
C1231       C  0.77839647  0.09244846  0.63235823     0.09600
S1232       S  0.75534934  0.04118304  0.60900364    -0.25100
H1233       H  0.73577607  0.01704858  0.65352337     0.19800
S1234       S  0.75757930  0.07259694  0.72814863    -0.30800
H1235       H  0.77705420  0.09722514  0.68337526     0.10200
C1236       C  0.76277258  0.10665634  0.61543029     0.03400
C1237       C  0.77446225  0.12197641  0.59665548    -0.13100
C1238       C  0.80140222  0.12354782  0.59484632    -0.08800
C1239       C  0.81685534  0.11076063  0.61316219     0.06800
C1240       C  0.80520271  0.09503641  0.63141945    -0.13900
S1241       S  0.72805088  0.10517888  0.61771041    -0.30800
H1242       H  0.76265348  0.13220860  0.58294030     0.11100
S1243       S  0.85138446  0.11439144  0.61488410    -0.27900
H1244       H  0.81710867  0.08459649  0.64492882     0.08300
H1245       H  0.73308388  0.06273297  0.73420094     0.26700
H1246       H  0.72281779  0.12288753  0.59804575     0.21500
H1247       H  0.85128140  0.14056399  0.60845648     0.26800
H1248       H  0.77836978  0.05339048  0.60172159     0.15700
C1249       C  0.60567807  0.89189911  0.83082383    -0.11600
C1250       C  0.62435679  0.87966883  0.81580925     0.14900
C1251       C  0.62347489  0.85281166  0.81284751     0.01800
C1252       C  0.60316352  0.83901493  0.82388189    -0.16000
C1253       C  0.58394346  0.85135013  0.83831209    -0.10800
C1254       C  0.58537055  0.87819339  0.84179865     0.08500
C1255       C  0.64256479  0.89601044  0.80141421     0.09600
S1256       S  0.64740163  0.83511043  0.79503046    -0.25100
H1257       H  0.60249993  0.81843408  0.82135644     0.19800
S1258       S  0.56096505  0.89653280  0.85819723    -0.30800
H1259       H  0.60616821  0.91254864  0.83286453     0.10200
C1260       C  0.64013816  0.89915704  0.77470370     0.03400
C1261       C  0.65607743  0.91665155  0.76203713    -0.13100
C1262       C  0.67389321  0.93184821  0.77548977    -0.08800
C1263       C  0.67634673  0.92850989  0.80231453     0.06800
C1264       C  0.66063958  0.91068748  0.81494358    -0.13900
S1265       S  0.61542581  0.88241599  0.75692139    -0.30800
H1266       H  0.65408630  0.91904152  0.74150496     0.11100
S1267       S  0.69727006  0.94788952  0.82176257    -0.27900
H1268       H  0.66202524  0.90868170  0.83559155     0.08300
H1269       H  0.54017223  0.88340562  0.84691979     0.26700
H1270       H  0.62029527  0.89379846  0.73293426     0.21500
H1271       H  0.71972917  0.93870600  0.80974155     0.26800
H1272       H  0.66741723  0.85303715  0.79773144     0.15700
C1273       C  0.44332032  0.88975165  0.82716757    -0.11600
C1274       C  0.44664179  0.89115734  0.80054052     0.14900
C1275       C  0.46303044  0.87356005  0.78814481     0.01800
C1276       C  0.47678489  0.85580273  0.80278670    -0.16000
C1277       C  0.47426903  0.85490515  0.82962852    -0.10800
C1278       C  0.45654332  0.87157842  0.84178283     0.08500
C1279       C  0.43416344  0.91232907  0.78656457     0.09600
S1280       S  0.46771040  0.87326371  0.75385290    -0.25100
H1281       H  0.49011158  0.84306260  0.79313288     0.19800
S1282       S  0.44947256  0.87046387  0.87563760    -0.30800
H1283       H  0.43043575  0.90307348  0.83664204     0.10200
C1284       C  0.40740037  0.91265288  0.78225965     0.03400
C1285       C  0.39632048  0.93374354  0.76985642    -0.13100
C1286       C  0.41153613  0.95440389  0.76152809    -0.08800
C1287       C  0.43840419  0.95401051  0.76602088     0.06800
C1288       C  0.44940327  0.93290040  0.77831538    -0.13900
S1289       S  0.38757706  0.88582462  0.79175686    -0.30800
H1290       H  0.37579312  0.93392865  0.76611596     0.11100
S1291       S  0.45961180  0.98006192  0.75752777    -0.27900
H1292       H  0.46996949  0.93268676  0.78195522     0.08300
H1293       H  0.45057681  0.84358619  0.87731929     0.26700
H1294       H  0.36396497  0.89592091  0.78319858     0.21500
H1295       H  0.44162540  0.99965661  0.76196205     0.26800
H1296       H  0.44315093  0.88267345  0.74748405     0.15700
C1297       C  0.44696237  0.72555990  0.91306290    -0.11600
C1298       C  0.43018840  0.73805232  0.92996573     0.14900
C1299       C  0.43117131  0.76493591  0.93226037     0.01800
C1300       C  0.44906950  0.77868772  0.91772909    -0.16000
C1301       C  0.46668394  0.76619781  0.90150633    -0.10800
C1302       C  0.46542346  0.73921832  0.89910870     0.08500
C1303       C  0.41359028  0.72234396  0.94661917     0.09600
S1304       S  0.41075030  0.78281321  0.95385081    -0.25100
H1305       H  0.44975019  0.79932978  0.91973074     0.19800
S1306       S  0.48798758  0.72077430  0.88043318    -0.30800
H1307       H  0.44641202  0.70486281  0.91163150     0.10200
C1308       C  0.38683923  0.72050089  0.94267147     0.03400
C1309       C  0.37183335  0.70665077  0.96022272    -0.13100
C1310       C  0.38316966  0.69457090  0.98150530    -0.08800
C1311       C  0.41006668  0.69645993  0.98526797     0.06800
C1312       C  0.42499067  0.70998173  0.96757738    -0.13900
S1313       S  0.37197349  0.73555954  0.91522580    -0.30800
H1314       H  0.35123654  0.70503213  0.95729164     0.11100
S1315       S  0.42629144  0.68357315  0.01300027    -0.27900
H1316       H  0.44557519  0.71173353  0.97067533     0.08300
H1317       H  0.50978152  0.73357096  0.89008020     0.26700
H1318       H  0.34655333  0.72791139  0.92070622     0.21500
H1319       H  0.40671970  0.69027097  0.03046459     0.26800
H1320       H  0.40842697  0.76381328  0.97280443     0.15700
C1321       C  0.61906056  0.71923219  0.98264215    -0.11600
C1322       C  0.62435153  0.71799485  0.95629573     0.14900
C1323       C  0.64580012  0.70387128  0.94747209     0.01800
C1324       C  0.66142257  0.69124131  0.96524546    -0.16000
C1325       C  0.65631810  0.69288417  0.99156527    -0.10800
C1326       C  0.63474829  0.70671425  0.00037664     0.08500
C1327       C  0.60809322  0.73317187  0.93890703     0.09600
S1328       S  0.65472885  0.70180133  0.91407178    -0.25100
H1329       H  0.67810827  0.68065869  0.95858048     0.19800
S1330       S  0.62693260  0.71001817  0.03393200    -0.30800
H1331       H  0.60273103  0.73027922  0.98941559     0.10200
C1332       C  0.58974013  0.72178438  0.92264003     0.03400
C1333       C  0.57424122  0.73748294  0.90720674    -0.13100
C1334       C  0.57674530  0.76425514  0.90797977    -0.08800
C1335       C  0.59590330  0.77540696  0.92363906     0.06800
C1336       C  0.61103520  0.75978818  0.93919182    -0.13900
S1337       S  0.58531057  0.68749013  0.92241615    -0.30800
H1338       H  0.55952253  0.72897876  0.89523107     0.11100
S1339       S  0.60262979  0.80928580  0.92405460    -0.27900
H1340       H  0.62548952  0.76841274  0.95145069     0.08300
H1341       H  0.63526422  0.68547831  0.04111411     0.26700
H1342       H  0.56703910  0.68683188  0.90251238     0.21500
H1343       H  0.59780099  0.81307217  0.89776220     0.26800
H1344       H  0.64497914  0.72576529  0.90661761     0.15700
C1345       C  0.79428560  0.62579691  0.12121066    -0.11600
C1346       C  0.78889107  0.60038490  0.12773279     0.14900
C1347       C  0.76717476  0.58810708  0.11729371     0.01800
C1348       C  0.75173078  0.60128605  0.09989311    -0.16000
C1349       C  0.75689750  0.62689319  0.09306082    -0.10800
C1350       C  0.77843596  0.63932890  0.10431924     0.08500
C1351       C  0.80651717  0.58695821  0.14513423     0.09600
S1352       S  0.75827958  0.55557885  0.12510246    -0.25100
H1353       H  0.73538212  0.59127860  0.09176861     0.19800
S1354       S  0.78689049  0.67226793  0.09850905    -0.30800
H1355       H  0.81094560  0.63519049  0.12949111     0.10200
C1356       C  0.82425651  0.56887764  0.13580150     0.03400
C1357       C  0.83951107  0.55532134  0.15320812    -0.13100
C1358       C  0.83737845  0.55957408  0.17973313    -0.08800
C1359       C  0.82038113  0.57865720  0.18884742     0.06800
C1360       C  0.80497841  0.59200126  0.17144913    -0.13900
S1361       S  0.82716202  0.56284796  0.10179171    -0.30800
H1362       H  0.85255909  0.54074975  0.14617448     0.11100
S1363       S  0.81806867  0.58745019  0.22215042    -0.27900
H1364       H  0.79157450  0.60630910  0.17843432     0.08300
H1365       H  0.76240674  0.68144015  0.10562291     0.26700
H1366       H  0.84706606  0.54464117  0.10343293     0.21500
H1367       H  0.84461693  0.58457854  0.22671348     0.26800
H1368       H  0.76833420  0.55543146  0.15011266     0.15700
C1369       C  0.65565991  0.72414256  0.13176036    -0.11600
C1370       C  0.62912337  0.71939752  0.13021327     0.14900
C1371       C  0.62003282  0.69942891  0.11441799     0.01800
C1372       C  0.63758118  0.68514355  0.10003642    -0.16000
C1373       C  0.66400628  0.69097225  0.10016459    -0.10800
C1374       C  0.67321971  0.70996575  0.11718445     0.08500
C1375       C  0.61129932  0.73655368  0.14399739     0.09600
S1376       S  0.58625132  0.69213799  0.11052528    -0.25100
H1377       H  0.63022514  0.67052497  0.08726191     0.19800
S1378       S  0.70700713  0.71675853  0.12152551    -0.30800
H1379       H  0.66268733  0.73918161  0.14423868     0.10200
C1380       C  0.59699510  0.72821038  0.16533433     0.03400
C1381       C  0.57857977  0.74458624  0.17612110    -0.13100
C1382       C  0.57433219  0.76933679  0.16619695    -0.08800
C1383       C  0.58979814  0.77805814  0.14550667     0.06800
C1384       C  0.60797340  0.76145419  0.13462633    -0.13900
S1385       S  0.60221007  0.69673256  0.17876786    -0.30800
H1386       H  0.56710376  0.73782401  0.19209995     0.11100
S1387       S  0.58733853  0.81029351  0.13301080    -0.27900
H1388       H  0.61943913  0.76764682  0.11839248     0.08300
H1389       H  0.71502483  0.69128280  0.11787893     0.26700
H1390       H  0.58436463  0.69884195  0.19898904     0.21500
H1391       H  0.60685021  0.80835275  0.11435775     0.26800
H1392       H  0.57720385  0.71733698  0.11331174     0.15700
C1393       C  0.89860697  0.59711708  0.76866855    -0.11600
C1394       C  0.92556987  0.59745177  0.76976342     0.14900
C1395       C  0.93854016  0.58160590  0.78739569     0.01800
C1396       C  0.92434453  0.56511779  0.80292338    -0.16000
C1397       C  0.89729154  0.56427930  0.80176310    -0.10800
C1398       C  0.88421191  0.58074703  0.78453267     0.08500
C1399       C  0.93988767  0.61447294  0.75235605     0.09600
S1400       S  0.97317407  0.58125298  0.79085426    -0.25100
H1401       H  0.93469419  0.55264962  0.81596001     0.19800
S1402       S  0.84941255  0.58191452  0.78305143    -0.30800
H1403       H  0.88893735  0.60968702  0.75524591     0.17400
C1404       C  0.95397790  0.60464911  0.73151459     0.03400
C1405       C  0.97037397  0.62095018  0.71780098    -0.13100
C1406       C  0.97273935  0.64694587  0.72439299    -0.08800
C1407       C  0.95676508  0.65707465  0.74394514     0.06800
C1408       C  0.94080923  0.64064600  0.75792585    -0.13900
S1409       S  0.95163145  0.57121877  0.72293535    -0.30800
H1410       H  0.98221585  0.61312150  0.70260877     0.11100
S1411       S  0.95549137  0.69063567  0.75184464    -0.27900
H1412       H  0.92941369  0.64819703  0.77362993     0.08300
H1413       H  0.84748583  0.60071057  0.76380603     0.26700
H1414       H  0.96804363  0.57228845  0.70146229     0.21500
H1415       H  0.95798292  0.69902117  0.72628586     0.26800
H1416       H  0.97722607  0.60711056  0.78457018     0.15700
C1417       C  0.79356630  0.59489123  0.90066142    -0.11600
C1418       C  0.79765952  0.59264233  0.92714107     0.14900
C1419       C  0.81666816  0.57559576  0.93630963     0.01800
C1420       C  0.83110120  0.56127872  0.91884141    -0.16000
C1421       C  0.82647485  0.56282723  0.89234091    -0.10800
C1422       C  0.80790706  0.58042903  0.88317349     0.08500
C1423       C  0.78105457  0.60745086  0.94472115     0.09600
S1424       S  0.82266050  0.57021646  0.97000081    -0.25100
H1425       H  0.84515955  0.54778862  0.92617006     0.19800
S1426       S  0.80206563  0.58593147  0.84953666    -0.30800
H1427       H  0.77912714  0.60811840  0.89358255     0.10200
C1428       C  0.79096754  0.62703869  0.96041704     0.03400
C1429       C  0.77486339  0.63850732  0.97869396    -0.13100
C1430       C  0.74885757  0.63125769  0.98108957    -0.08800
C1431       C  0.73852127  0.61329656  0.96360100     0.06800
C1432       C  0.75482184  0.60123697  0.94603900    -0.13900
S1433       S  0.82403054  0.63743295  0.95713869    -0.30800
H1434       H  0.78275432  0.65269297  0.99160814     0.11100
S1435       S  0.70468551  0.60558985  0.96196848    -0.27900
H1436       H  0.74702166  0.58678747  0.93331675     0.08300
H1437       H  0.82807445  0.58339284  0.84226908     0.26700
H1438       H  0.82302995  0.65695411  0.97567400     0.21500
H1439       H  0.69628861  0.63070477  0.96705465     0.26800
H1440       H  0.79723047  0.57441671  0.97830423     0.15700
C1441       C  0.79528647  0.37582639  0.94397371    -0.11600
C1442       C  0.79850370  0.40225371  0.94745578     0.14900
C1443       C  0.78934719  0.41397914  0.97003193     0.01800
C1444       C  0.77625576  0.39931259  0.98814705    -0.16000
C1445       C  0.77258768  0.37296717  0.98463492    -0.10800
C1446       C  0.78232976  0.36101037  0.96232877     0.08500
C1447       C  0.80971041  0.41776751  0.92667084     0.09600
S1448       S  0.79342876  0.44764256  0.97668519    -0.25100
H1449       H  0.76902958  0.40854213  0.00533350     0.19800
S1450       S  0.77769249  0.32749655  0.95544196    -0.30800
H1451       H  0.80218755  0.36689795  0.92651310     0.10200
C1452       C  0.83650910  0.41920737  0.92296267     0.03400
C1453       C  0.84644379  0.43714713  0.90557575    -0.13100
C1454       C  0.83007577  0.45385498  0.89205432    -0.08800
C1455       C  0.80308873  0.45190972  0.89560728     0.06800
C1456       C  0.79325326  0.43359508  0.91249057    -0.13900
S1457       S  0.85802086  0.39927816  0.94148440    -0.30800
H1458       H  0.86708971  0.43848939  0.90284537     0.11100
S1459       S  0.78024649  0.47356133  0.88118432    -0.27900
H1460       H  0.77263333  0.43265419  0.91576662     0.08300
H1461       H  0.75347407  0.32534588  0.96732859     0.26700
H1462       H  0.88116535  0.40920220  0.93150644     0.21500
H1463       H  0.79468350  0.49567715  0.88679654     0.26800
H1464       H  0.81719144  0.45034301  0.96399387     0.15700
C1465       C  0.95815627  0.38406894  0.77589368    -0.11600
C1466       C  0.94017321  0.39792444  0.76145634     0.14900
C1467       C  0.93813810  0.39352051  0.73485771     0.01800
C1468       C  0.95380589  0.37500402  0.72343642    -0.16000
C1469       C  0.97226770  0.36141961  0.73773627    -0.10800
C1470       C  0.97453553  0.36629048  0.76433261     0.08500
C1471       C  0.92532062  0.41805534  0.77459575     0.09600
S1472       S  0.91657893  0.41126394  0.71431356    -0.25100
H1473       H  0.95190398  0.37156704  0.70302767     0.19800
S1474       S  0.99902020  0.35209200  0.78429686    -0.30800
H1475       H  0.96008282  0.38787283  0.79624176     0.10200
C1476       C  0.89876489  0.41553222  0.77968470     0.03400
C1477       C  0.88601929  0.43494790  0.79325426    -0.13100
C1478       C  0.89946107  0.45660078  0.80192843    -0.08800
C1479       C  0.92585756  0.45942259  0.79588260     0.06800
C1480       C  0.93854592  0.43997965  0.78264554    -0.13900
S1481       S  0.88146333  0.38714924  0.76999307    -0.30800
H1482       H  0.86578232  0.43287385  0.79792549     0.11100
S1483       S  0.94419202  0.48770257  0.80368499    -0.27900
H1484       H  0.95888836  0.44203378  0.77832039     0.08300
H1485       H  0.01896302  0.35574216  0.76632100     0.26700
H1486       H  0.85692489  0.39534104  0.77803292     0.21500
H1487       H  0.92373518  0.50485123  0.79943178     0.26800
H1488       H  0.91694636  0.43414432  0.72845194     0.15700
loop_ 
_geom_bond_atom_site_label_1 
_geom_bond_atom_site_label_2 
_geom_bond_distance 
_geom_bond_site_symmetry_2 
_ccdc_geom_bond_type 
O1           Cu9   1.995       .  S
O1           C11   1.277       .  A
O2           Cu9   1.989       .  S
O2           C12   1.277       .  A
O3           Cu9   1.998       .  S
O3           C13   1.277       .  A
O4           Cu9   1.996       .  S
O4           C14   1.277       .  A
O5          Cu10   2.002       .  S
O5           C14   1.277       .  A
O6          Cu10   2.006       .  S
O6           C13   1.278       .  A
O7          Cu10   2.005       .  S
O7           C12   1.277       .  A
O8          Cu10   2.003       .  S
O8           C11   1.277       .  A
Cu9         Cu10   2.372       .  S
C11        C1454   1.477       .  S
C12        C1397   1.479       .  S
C13        C1421   1.478       .  S
C14        C1478   1.470       .  S
O15         Cu23   2.001       .  S
O15          C25   1.277       .  A
O16         Cu23   2.000       .  S
O16          C26   1.277       .  A
O17         Cu23   2.002       .  S
O17          C27   1.277       .  A
O18         Cu23   2.003       .  S
O18          C28   1.276       .  A
O19         Cu24   1.987       .  S
O19          C28   1.277       .  A
O20         Cu24   1.992       .  S
O20          C27   1.274       .  A
O21         Cu24   2.005       .  S
O21          C26   1.278       .  A
O22         Cu24   2.004       .  S
O22          C25   1.278       .  A
Cu23        Cu24   2.372       .  S
C25        C1373   1.478       .  S
C26        C1430   1.479   1_554  S
C27        C1325   1.458   1_554  S
C28        C1349   1.485       .  S
O29         Cu37   2.007       .  S
O29          C39   1.277       .  A
O30         Cu37   2.011       .  S
O30          C40   1.279       .  A
O31         Cu37   2.006       .  S
O31          C41   1.277       .  A
O32         Cu37   2.005       .  S
O32          C42   1.278       .  A
O33         Cu38   1.997       .  S
O33          C42   1.276       .  A
O34         Cu38   1.991       .  S
O34          C41   1.276       .  A
O35         Cu38   1.992       .  S
O35          C40   1.275       .  A
O36         Cu38   1.994       .  S
O36          C39   1.277       .  A
Cu37        Cu38   2.372       .  S
C39        C1301   1.478       .  S
C40        C1253   1.477       .  S
C41        C1334   1.471       .  S
C42        C1277   1.479       .  S
O43         Cu51   2.021       .  S
O43          C53   1.279       .  A
O44         Cu51   2.014   1_545  S
O44          C54   1.279       .  A
O45         Cu51   2.004   1_545  S
O45          C55   1.277       .  A
O46         Cu51   2.007       .  S
O46          C56   1.278       .  A
O47         Cu52   2.000       .  S
O47          C56   1.277       .  A
O48         Cu52   2.002   1_545  S
O48          C55   1.277       .  A
O49         Cu52   1.978   1_545  S
O49          C54   1.274       .  A
O50         Cu52   1.980       .  S
O50          C53   1.275       .  A
Cu51        Cu52   2.373       .  S
C53        C1262   1.481       .  S
C54        C1229   1.466       .  S
C55        C1214   1.478       .  S
C56        C1181   1.476       .  S
O57         Cu65   1.994       .  S
O57          C67   1.277       .  A
O58         Cu65   1.994       .  S
O58          C68   1.277   1_455  A
O59         Cu65   1.994       .  S
O59          C69   1.276   1_455  A
O60         Cu65   1.997       .  S
O60          C70   1.276       .  A
O61         Cu66   2.003       .  S
O61          C70   1.277       .  A
O62         Cu66   2.008       .  S
O62          C69   1.278   1_455  A
O63         Cu66   2.001       .  S
O63          C68   1.277   1_455  A
O64         Cu66   1.996       .  S
O64          C67   1.276       .  A
Cu65        Cu66   2.375       .  S
C67        C1133   1.469       .  S
C68        C1406   1.477       .  S
C69        C1109   1.474       .  S
C70        C1157   1.469       .  S
O71         Cu79   2.002       .  S
O71          C81   1.278       .  A
O72         Cu79   2.004       .  S
O72          C82   1.277       .  A
O73         Cu79   2.010       .  S
O73          C83   1.277       .  A
O74         Cu79   2.008       .  S
O74          C84   1.278       .  A
O75         Cu80   2.008       .  S
O75          C84   1.278       .  A
O76         Cu80   1.998       .  S
O76          C83   1.276       .  A
O77         Cu80   2.007       .  S
O77          C82   1.278       .  A
O78         Cu80   2.018       .  S
O78          C81   1.279       .  A
Cu79        Cu80   2.372       .  S
C81        C1061   1.490       .  S
C82        C1190   1.476       .  S
C83        C1118   1.467       .  S
C84        C1085   1.480       .  S
O85         Cu93   1.993       .  S
O85          C95   1.276       .  A
O86         Cu93   2.000       .  S
O86          C96   1.276       .  A
O87         Cu93   2.006       .  S
O87          C97   1.278       .  A
O88         Cu93   1.998       .  S
O88          C98   1.277       .  A
O89         Cu94   2.006       .  S
O89          C98   1.277       .  A
O90         Cu94   1.995       .  S
O90          C97   1.277       .  A
O91         Cu94   1.998       .  S
O91          C96   1.276       .  A
O92         Cu94   1.994       .  S
O92          C95   1.276       .  A
Cu93        Cu94   2.377       .  S
C95        C1013   1.463       .  S
C96         C998   1.464       .  S
C97        C1037   1.472       .  S
C98        C1205   1.479       .  S
O99        Cu107   1.992       .  S
O99         C109   1.276       .  A
O100       Cu107   1.994       .  S
O100        C110   1.276       .  A
O101       Cu107   2.008       .  S
O101        C111   1.279       .  A
O102       Cu107   2.014       .  S
O102        C112   1.278       .  A
O103       Cu108   1.983       .  S
O103        C112   1.275       .  A
O104       Cu108   1.988       .  S
O104        C111   1.275       .  A
O105       Cu108   1.994       .  S
O105        C110   1.276       .  A
O106       Cu108   1.997       .  S
O106        C109   1.277       .  A
Cu107      Cu108   2.377       .  S
C109       C1022   1.466   1_554  S
C110        C941   1.467       .  S
C111        C974   1.474       .  S
C112       C1445   1.467   1_554  S
O113       Cu121   1.988       .  S
O113        C123   1.276       .  A
O114       Cu121   1.990       .  S
O114        C124   1.276       .  A
O115       Cu121   1.995       .  S
O115        C125   1.276       .  A
O116       Cu121   1.995       .  S
O116        C126   1.277       .  A
O117       Cu122   1.997       .  S
O117        C126   1.276       .  A
O118       Cu122   1.995       .  S
O118        C125   1.277       .  A
O119       Cu122   2.003       .  S
O119        C124   1.277       .  A
O120       Cu122   2.003       .  S
O120        C123   1.278       .  A
Cu121      Cu122   2.373       .  S
C123       C1358   1.471       .  S
C124        C926   1.476       .  S
C125        C950   1.474       .  S
C126        C893   1.475       .  S
O127       Cu135   2.007       .  S
O127        C137   1.278       .  A
O128       Cu135   2.001       .  S
O128        C138   1.277       .  A
O129       Cu135   1.998       .  S
O129        C139   1.277       .  A
O130       Cu135   1.995       .  S
O130        C140   1.276       .  A
O131       Cu136   1.991       .  S
O131        C140   1.276       .  A
O132       Cu136   1.999       .  S
O132        C139   1.277       .  A
O133       Cu136   2.013       .  S
O133        C138   1.279       .  A
O134       Cu136   2.011       .  S
O134        C137   1.278       .  A
Cu135      Cu136   2.372       .  S
C137       C1070   1.481       .  S
C138        C878   1.480       .  S
C139        C854   1.473       .  S
C140        C902   1.477   1_455  S
O141       Cu149   2.017       .  S
O141        C151   1.279       .  A
O142       Cu149   2.013       .  S
O142        C152   1.280       .  A
O143       Cu149   1.997       .  S
O143        C153   1.276       .  A
O144       Cu149   1.998       .  S
O144        C154   1.276       .  A
O145       Cu150   1.997       .  S
O145        C154   1.277       .  A
O146       Cu150   2.002       .  S
O146        C153   1.278       .  A
O147       Cu150   1.987       .  S
O147        C152   1.273       .  A
O148       Cu150   1.984       .  S
O148        C151   1.275       .  A
Cu149      Cu150   2.372       .  S
C151        C845   1.476       .  S
C152        C797   1.485       .  S
C153       C1142   1.472       .  S
C154        C821   1.465       .  S
O155       Cu163   2.003       .  S
O155        C165   1.277       .  A
O156       Cu163   2.000   1_565  S
O156        C166   1.277       .  A
O157       Cu163   2.000   1_565  S
O157        C167   1.277       .  A
O158       Cu163   2.003       .  S
O158        C168   1.278       .  A
O159       Cu164   1.995       .  S
O159        C168   1.276       .  A
O160       Cu164   2.003   1_565  S
O160        C167   1.277       .  A
O161       Cu164   1.997   1_565  S
O161        C166   1.277       .  A
O162       Cu164   1.993       .  S
O162        C165   1.276       .  A
Cu163      Cu164   2.376       .  S
C165        C989   1.465       .  S
C166        C806   1.473       .  S
C167       C1286   1.472       .  S
C168        C773   1.474       .  S
O169       Cu177   2.006       .  S
O169        C179   1.278       .  A
O170       Cu177   1.997   1_545  S
O170        C180   1.276       .  A
O171       Cu177   2.020   1_545  S
O171        C181   1.279       .  A
O172       Cu177   2.020       .  S
O172        C182   1.279       .  A
O173       Cu178   2.001   1_565  S
O173        C182   1.277       .  A
O174       Cu178   1.996       .  S
O174        C181   1.276       .  A
O175       Cu178   2.004       .  S
O175        C180   1.278       .  A
O176       Cu178   2.007   1_565  S
O176        C179   1.277       .  A
Cu177      Cu178   2.375   1_565  S
C179       C1094   1.475       .  S
C180        C749   1.470       .  S
C181        C710   1.471       .  S
C182        C725   1.483       .  S
O183       Cu191   2.004       .  S
O183        C193   1.276       .  A
O184       Cu191   1.999       .  S
O184        C194   1.277       .  A
O185       Cu191   2.010       .  S
O185        C195   1.278       .  A
O186       Cu191   2.007       .  S
O186        C196   1.278       .  A
O187       Cu192   1.997       .  S
O187        C196   1.277       .  A
O188       Cu192   1.994       .  S
O188        C195   1.277       .  A
O189       Cu192   2.020       .  S
O189        C194   1.278       .  A
O190       Cu192   2.019       .  S
O190        C193   1.280       .  A
Cu191      Cu192   2.371       .  S
C193        C734   1.480       .  S
C194        C662   1.475       .  S
C195        C677   1.481       .  S
C196       C1382   1.485       .  S
O197       Cu205   1.988       .  S
O197        C207   1.276       .  A
O198       Cu205   1.983       .  S
O198        C208   1.276       .  A
O199       Cu205   1.991       .  S
O199        C209   1.276       .  A
O200       Cu205   1.995       .  S
O200        C210   1.276       .  A
O201       Cu206   2.002       .  S
O201        C210   1.277       .  A
O202       Cu206   2.002       .  S
O202        C209   1.277       .  A
O203       Cu206   2.019       .  S
O203        C208   1.279       .  A
O204       Cu206   2.018       .  S
O204        C207   1.279       .  A
Cu205      Cu206   2.371       .  S
C207        C614   1.481       .  S
C208        C590   1.483       .  S
C209        C638   1.472       .  S
C210       C1166   1.474       .  S
O211       Cu219   1.999       .  S
O211        C221   1.277   1_554  A
O212       Cu219   2.002       .  S
O212        C222   1.277       .  A
O213       Cu219   1.998       .  S
O213        C223   1.277       .  A
O214       Cu219   2.001       .  S
O214        C224   1.277   1_554  A
O215       Cu220   1.994       .  S
O215        C224   1.276   1_554  A
O216       Cu220   2.001       .  S
O216        C223   1.276       .  A
O217       Cu220   2.015       .  S
O217        C222   1.279       .  A
O218       Cu220   2.014       .  S
O218        C221   1.279   1_554  A
Cu219      Cu220   2.375       .  S
C221        C605   1.479       .  S
C222        C653   1.479       .  S
C223        C557   1.466       .  S
C224       C1310   1.470       .  S
O225       Cu233   2.006       .  S
O225        C235   1.277       .  A
O226       Cu233   2.002       .  S
O226        C236   1.277       .  A
O227       Cu233   2.011       .  S
O227        C237   1.278       .  A
O228       Cu233   1.999       .  S
O228        C238   1.278       .  A
O229       Cu234   2.001       .  S
O229        C238   1.277       .  A
O230       Cu234   1.997       .  S
O230        C237   1.277       .  A
O231       Cu234   1.995       .  S
O231        C236   1.276       .  A
O232       Cu234   2.000       .  S
O232        C235   1.277       .  A
Cu233      Cu234   2.374       .  S
C235        C533   1.469       .  S
C236        C566   1.470       .  S
C237        C869   1.476       .  S
C238        C518   1.481       .  S
O239       Cu247   1.992   1_556  S
O239        C249   1.276       .  A
O240       Cu247   1.994       .  S
O240        C250   1.276       .  A
O241       Cu247   1.996       .  S
O241        C251   1.276       .  A
O242       Cu247   2.000   1_556  S
O242        C252   1.277       .  A
O243       Cu248   2.005   1_556  S
O243        C252   1.277       .  A
O244       Cu248   2.003       .  S
O244        C251   1.278       .  A
O245       Cu248   2.002       .  S
O245        C250   1.277       .  A
O246       Cu248   2.004   1_556  S
O246        C249   1.278       .  A
Cu247      Cu248   2.377       .  S
C249        C629   1.472       .  S
C250        C485   1.469       .  S
C251        C509   1.471       .  S
C252       C1046   1.469       .  S
O253       Cu261   2.004       .  S
O253        C263   1.277       .  A
O254       Cu261   1.995       .  S
O254        C264   1.276       .  A
O255       Cu261   1.995       .  S
O255        C265   1.278       .  A
O256       Cu261   1.996       .  S
O256        C266   1.276       .  A
O257       Cu262   1.997       .  S
O257        C266   1.277       .  A
O258       Cu262   2.003       .  S
O258        C265   1.276       .  A
O259       Cu262   2.004       .  S
O259        C264   1.277       .  A
O260       Cu262   2.000       .  S
O260        C263   1.277       .  A
Cu261      Cu262   2.371       .  S
C263        C461   1.471       .  S
C264        C965   1.474       .  S
C265        C758   1.487       .  S
C266        C494   1.475       .  S
O267       Cu275   1.993   1_655  S
O267        C277   1.277       .  A
O268       Cu275   2.001       .  S
O268        C278   1.277       .  A
O269       Cu275   1.995       .  S
O269        C279   1.276       .  A
O270       Cu275   1.994   1_655  S
O270        C280   1.277       .  A
O271       Cu276   2.006   1_655  S
O271        C280   1.277       .  A
O272       Cu276   2.002       .  S
O272        C279   1.277       .  A
O273       Cu276   2.002       .  S
O273        C278   1.277       .  A
O274       Cu276   2.006   1_655  S
O274        C277   1.277       .  A
Cu275      Cu276   2.374       .  S
C277        C422   1.469       .  S
C278        C581   1.479       .  S
C279        C437   1.466       .  S
C280       C1469   1.477       .  S
O281       Cu289   1.991       .  S
O281        C291   1.275       .  A
O282       Cu289   1.995       .  S
O282        C292   1.277       .  A
O283       Cu289   1.989       .  S
O283        C293   1.276       .  A
O284       Cu289   1.989       .  S
O284        C294   1.276       .  A
O285       Cu290   2.004       .  S
O285        C294   1.277       .  A
O286       Cu290   2.009       .  S
O286        C293   1.278       .  A
O287       Cu290   2.018       .  S
O287        C292   1.279       .  A
O288       Cu290   2.010       .  S
O288        C291   1.278       .  A
Cu289      Cu290   2.374       .  S
C291        C413   1.471       .  S
C292        C701   1.482       .  S
C293        C398   1.474       .  S
C294       C1238   1.470       .  S
O295       Cu303   1.998       .  S
O295        C305   1.276       .  A
O296       Cu303   1.999       .  S
O296        C306   1.277       .  A
O297       Cu303   2.004       .  S
O297        C307   1.277       .  A
O298       Cu303   2.002       .  S
O298        C308   1.278       .  A
O299       Cu304   1.991       .  S
O299        C308   1.276       .  A
O300       Cu304   1.987       .  S
O300        C307   1.276       .  A
O301       Cu304   2.001       .  S
O301        C306   1.277       .  A
O302       Cu304   2.001       .  S
O302        C305   1.278       .  A
Cu303      Cu304   2.375       .  S
C305        C374   1.475       .  S
C306        C446   1.472       .  S
C307        C782   1.470       .  S
C308        C350   1.471       .  S
O309       Cu317   2.007       .  S
O309        C319   1.279       .  A
O310       Cu317   2.009   1_565  S
O310        C320   1.278       .  A
O311       Cu317   1.998   1_565  S
O311        C321   1.276       .  A
O312       Cu317   2.002       .  S
O312        C322   1.277       .  A
O313       Cu318   1.999       .  S
O313        C322   1.277       .  A
O314       Cu318   2.002   1_565  S
O314        C321   1.277       .  A
O315       Cu318   1.991   1_565  S
O315        C320   1.276       .  A
O316       Cu318   1.993       .  S
O316        C319   1.275       .  A
Cu317      Cu318   2.376       .  S
C319        C365   1.473       .  S
C320        C686   1.471       .  S
C321        C830   1.466       .  S
C322        C470   1.470       .  S
O323       Cu331   1.980       .  S
O323        C333   1.276       .  A
O324       Cu331   1.987       .  S
O324        C334   1.276   1_455  A
O325       Cu331   2.002       .  S
O325        C335   1.277   1_455  A
O326       Cu331   2.004       .  S
O326        C336   1.278       .  A
O327       Cu332   2.004       .  S
O327        C336   1.277       .  A
O328       Cu332   2.005   1_655  S
O328        C335   1.278       .  A
O329       Cu332   2.009       .  S
O329        C334   1.278   1_455  A
O330       Cu332   2.010       .  S
O330        C333   1.278       .  A
Cu331      Cu332   2.371       .  S
C333        C341   1.479       .  S
C334        C917   1.480       .  S
C335        C389   1.473       .  S
C336        C542   1.478       .  S
C337        C338   1.402       .  A
C337        C342   1.399       .  A
C337        H347   1.084       .  S
C338        C343   1.474       .  S
C338        C339   1.410       .  A
C339        C340   1.391       .  A
C339        S344   1.806       .  S
C340        C341   1.406       .  A
C340        H345   1.084       .  S
C341        C342   1.416       .  A
C342        S346   1.801       .  S
C343        C348   1.409       .  A
C343        C352   1.402       .  A
S344        H360   1.407       .  S
S346        H357   1.408       .  S
C348        C349   1.398       .  A
C348        S353   1.808       .  S
C349        C350   1.404       .  A
C349        H354   1.083       .  S
C350        C351   1.412       .  A
C351        C352   1.396       .  A
C351        S355   1.803       .  S
C352        H356   1.084       .  S
S353        H358   1.407       .  S
S355        H359   1.407       .  S
C361        C362   1.399       .  A
C361        C366   1.395       .  A
C361        H371   1.084       .  S
C362        C367   1.472       .  S
C362        C363   1.410       .  A
C363        C364   1.398       .  A
C363        S368   1.804       .  S
C364        C365   1.404       .  A
C364        H369   1.084       .  S
C365        C366   1.416       .  A
C366        S370   1.803       .  S
C367        C372   1.408       .  A
C367        C376   1.400       .  A
S368        H384   1.406       .  S
S370        H381   1.406       .  S
C372        C373   1.398       .  A
C372        S377   1.809       .  S
C373        C374   1.404       .  A
C373        H378   1.083       .  S
C374        C375   1.416       .  A
C375        C376   1.399       .  A
C375        S379   1.803       .  S
C376        H380   1.084       .  S
S377        H382   1.406       .  S
S379        H383   1.408       .  S
C385        C386   1.400       .  A
C385        C390   1.396       .  A
C385        H395   1.084       .  S
C386        C391   1.474       .  S
C386        C387   1.413       .  A
C387        C388   1.399       .  A
C387        S392   1.806       .  S
C388        C389   1.404       .  A
C388        H393   1.084       .  S
C389        C390   1.413       .  A
C390        S394   1.802       .  S
C391        C396   1.408       .  A
C391        C400   1.400       .  A
S392        H408   1.405       .  S
S394        H405   1.407       .  S
C396        C397   1.402       .  A
C396        S401   1.806       .  S
C397        C398   1.406       .  A
C397        H402   1.083       .  S
C398        C399   1.414       .  A
C399        C400   1.395       .  A
C399        S403   1.804       .  S
C400        H404   1.084       .  S
S401        H406   1.407       .  S
S403        H407   1.408       .  S
C409        C410   1.402       .  A
C409        C414   1.395       .  A
C409        H419   1.084       .  S
C410        C415   1.476       .  S
C410        C411   1.411       .  A
C411        C412   1.399       .  A
C411        S416   1.804       .  S
C412        C413   1.404       .  A
C412        H417   1.084       .  S
C413        C414   1.413       .  A
C414        S418   1.804       .  S
C415        C420   1.409       .  A
C415        C424   1.401       .  A
S416        H432   1.406       .  S
S418        H429   1.407       .  S
C420        C421   1.402       .  A
C420        S425   1.806       .  S
C421        C422   1.403       .  A
C421        H426   1.083       .  S
C422        C423   1.412       .  A
C423        C424   1.395       .  A
C423        S427   1.804       .  S
C424        H428   1.084       .  S
S425        H430   1.407       .  S
S427        H431   1.407       .  S
C433        C434   1.402       .  A
C433        C438   1.396       .  A
C433        H443   1.084       .  S
C434        C439   1.472       .  S
C434        C435   1.412       .  A
C435        C436   1.397       .  A
C435        S440   1.805       .  S
C436        C437   1.402       .  A
C436        H441   1.084       .  S
C437        C438   1.411       .  A
C438        S442   1.804       .  S
C439        C444   1.408       .  A
C439        C448   1.400       .  A
S440        H456   1.405       .  S
S442        H453   1.407       .  S
C444        C445   1.402       .  A
C444        S449   1.806       .  S
C445        C446   1.405       .  A
C445        H450   1.083       .  S
C446        C447   1.414       .  A
C447        C448   1.395       .  A
C447        S451   1.804       .  S
C448        H452   1.084       .  S
S449        H454   1.407       .  S
S451        H455   1.407       .  S
C457        C458   1.402       .  A
C457        C462   1.398       .  A
C457        H467   1.084       .  S
C458        C463   1.476       .  S
C458        C459   1.412       .  A
C459        C460   1.397       .  A
C459        S464   1.805       .  S
C460        C461   1.402       .  A
C460        H465   1.084       .  S
C461        C462   1.413       .  A
C462        S466   1.803       .  S
C463        C468   1.410       .  A
C463        C472   1.402       .  A
S464        H480   1.406       .  S
S466        H477   1.407       .  S
C468        C469   1.400       .  A
C468        S473   1.807       .  S
C469        C470   1.402       .  A
C469        H474   1.083       .  S
C470        C471   1.413       .  A
C471        C472   1.397       .  A
C471        S475   1.803       .  S
C472        H476   1.084       .  S
S473        H478   1.407       .  S
S475        H479   1.407       .  S
C481        C482   1.401       .  A
C481        C486   1.397       .  A
C481        H491   1.084       .  S
C482        C487   1.472       .  S
C482        C483   1.412       .  A
C483        C484   1.394       .  A
C483        S488   1.806       .  S
C484        C485   1.402       .  A
C484        H489   1.082       .  S
C485        C486   1.413       .  A
C486        S490   1.803       .  S
C487        C492   1.407       .  A
C487        C496   1.400       .  A
S488        H504   1.406       .  S
S490        H501   1.407       .  S
C492        C493   1.398       .  A
C492        S497   1.807       .  S
C493        C494   1.405       .  A
C493        H498   1.082       .  S
C494        C495   1.415       .  A
C495        C496   1.396       .  A
C495        S499   1.803       .  S
C496        H500   1.084       .  S
S497        H502   1.407       .  S
S499        H503   1.408       .  S
C505        C506   1.401       .  A
C505        C510   1.397       .  A
C505        H515   1.084       .  S
C506        C511   1.471       .  S
C506        C507   1.409       .  A
C507        C508   1.397       .  A
C507        S512   1.804       .  S
C508        C509   1.404       .  A
C508        H513   1.084       .  S
C509        C510   1.413       .  A
C510        S514   1.804       .  S
C511        C516   1.405       .  A
C511        C520   1.399       .  A
S512        H528   1.405       .  S
S514        H525   1.407       .  S
C516        C517   1.399       .  A
C516        S521   1.807       .  S
C517        C518   1.407       .  A
C517        H522   1.082       .  S
C518        C519   1.418       .  A
C519        C520   1.398       .  A
C519        S523   1.802       .  S
C520        H524   1.084       .  S
S521        H526   1.407       .  S
S523        H527   1.408       .  S
C529        C530   1.402       .  A
C529        C534   1.401       .  A
C529        H539   1.084       .  S
C530        C535   1.474       .  S
C530        C531   1.413       .  A
C531        C532   1.395       .  A
C531        S536   1.806       .  S
C532        C533   1.400       .  A
C532        H537   1.084       .  S
C533        C534   1.414       .  A
C534        S538   1.804       .  S
C535        C540   1.408       .  A
C535        C544   1.400       .  A
S536        H552   1.405       .  S
S538        H549   1.407       .  S
C540        C541   1.401       .  A
C540        S545   1.807       .  S
C541        C542   1.405       .  A
C541        H546   1.083       .  S
C542        C543   1.415       .  A
C543        C544   1.398       .  A
C543        S547   1.803       .  S
C544        H548   1.084       .  S
S545        H550   1.407       .  S
S547        H551   1.408       .  S
C553        C554   1.401       .  A
C553        C558   1.398       .  A
C553        H563   1.084       .  S
C554        C559   1.473       .  S
C554        C555   1.411       .  A
C555        C556   1.395       .  A
C555        S560   1.805       .  S
C556        C557   1.401       .  A
C556        H561   1.084       .  S
C557        C558   1.414       .  A
C558        S562   1.805       .  S
C559        C564   1.409       .  A
C559        C568   1.400       .  A
S560        H576   1.406       .  S
S562        H573   1.403       .  S
C564        C565   1.399       .  A
C564        S569   1.808       .  S
C565        C566   1.403       .  A
C565        H570   1.083       .  S
C566        C567   1.413       .  A
C567        C568   1.397       .  A
C567        S571   1.804       .  S
C568        H572   1.084       .  S
S569        H574   1.407       .  S
S571        H575   1.406       .  S
C577        C578   1.400       .  A
C577        C582   1.402       .  A
C577        H587   1.083       .  S
C578        C583   1.473       .  S
C578        C579   1.409       .  A
C579        C580   1.396       .  A
C579        S584   1.804       .  S
C580        C581   1.405       .  A
C580        H585   1.084       .  S
C581        C582   1.416       .  A
C582        S586   1.809       .  S
C583        C588   1.406       .  A
C583        C592   1.401       .  A
S584        H600   1.406       .  S
S586        H597   1.407       .  S
C588        C589   1.395       .  A
C588        S593   1.810       .  S
C589        C590   1.407       .  A
C589        H594   1.082       .  S
C590        C591   1.418       .  A
C591        C592   1.402       .  A
C591        S595   1.801       .  S
C592        H596   1.084       .  S
S593        H598   1.406       .  S
S595        H599   1.408       .  S
C601        C602   1.402       .  A
C601        C606   1.403       .  A
C601        H611   1.083       .  S
C602        C607   1.477       .  S
C602        C603   1.411       .  A
C603        C604   1.397       .  A
C603        S608   1.806       .  S
C604        C605   1.404       .  A
C604        H609   1.084       .  S
C605        C606   1.414       .  A
C606        S610   1.808       .  S
C607        C612   1.407       .  A
C607        C616   1.401       .  A
S608        H624   1.405       .  S
S610        H621   1.407       .  S
C612        C613   1.400       .  A
C612        S617   1.807       .  S
C613        C614   1.407       .  A
C613        H618   1.083       .  S
C614        C615   1.417       .  A
C615        C616   1.399       .  A
C615        S619   1.801       .  S
C616        H620   1.084       .  S
S617        H622   1.407       .  S
S619        H623   1.406       .  S
C625        C626   1.399       .  A
C625        C630   1.396       .  A
C625        H635   1.084       .  S
C626        C631   1.472       .  S
C626        C627   1.412       .  A
C627        C628   1.396       .  A
C627        S632   1.806       .  S
C628        C629   1.403       .  A
C628        H633   1.084       .  S
C629        C630   1.415       .  A
C630        S634   1.803       .  S
C631        C636   1.408       .  A
C631        C640   1.400       .  A
S632        H648   1.405       .  S
S634        H645   1.406       .  S
C636        C637   1.399       .  A
C636        S641   1.807       .  S
C637        C638   1.404       .  A
C637        H642   1.082       .  S
C638        C639   1.413       .  A
C639        C640   1.396       .  A
C639        S643   1.803       .  S
C640        H644   1.084       .  S
S641        H646   1.407       .  S
S643        H647   1.408       .  S
C649        C650   1.402       .  A
C649        C654   1.401       .  A
C649        H659   1.084       .  S
C650        C655   1.480       .  S
C650        C651   1.412       .  A
C651        C652   1.398       .  A
C651        S656   1.804       .  S
C652        C653   1.404       .  A
C652        H657   1.084       .  S
C653        C654   1.416       .  A
C654        S658   1.804       .  S
C655        C660   1.410       .  A
C655        C664   1.401       .  A
S656        H672   1.406       .  S
S658        H669   1.405       .  S
C660        C661   1.407       .  A
C660        S665   1.805       .  S
C661        C662   1.405       .  A
C661        H666   1.083       .  S
C662        C663   1.413       .  A
C663        C664   1.396       .  A
C663        S667   1.804       .  S
C664        H668   1.084       .  S
S665        H670   1.407       .  S
S667        H671   1.407       .  S
C673        C674   1.400       .  A
C673        C678   1.400       .  A
C673        H683   1.084       .  S
C674        C679   1.473       .  S
C674        C675   1.409       .  A
C675        C676   1.394       .  A
C675        S680   1.805       .  S
C676        C677   1.406       .  A
C676        H681   1.084       .  S
C677        C678   1.417       .  A
C678        S682   1.802       .  S
C679        C684   1.408       .  A
C679        C688   1.401       .  A
S680        H696   1.405       .  S
S682        H693   1.408       .  S
C684        C685   1.397       .  A
C684        S689   1.808       .  S
C685        C686   1.403       .  A
C685        H690   1.083       .  S
C686        C687   1.414       .  A
C687        C688   1.400       .  A
C687        S691   1.803       .  S
C688        H692   1.084       .  S
S689        H694   1.407       .  S
S691        H695   1.407       .  S
C697        C698   1.403       .  A
C697        C702   1.401       .  A
C697        H707   1.084       .  S
C698        C703   1.478       .  S
C698        C699   1.409       .  A
C699        C700   1.397       .  A
C699        S704   1.804       .  S
C700        C701   1.406       .  A
C700        H705   1.084       .  S
C701        C702   1.416       .  A
C702        S706   1.802       .  S
C703        C708   1.409       .  A
C703        C712   1.403       .  A
S704        H720   1.405       .  S
S706        H717   1.408       .  S
C708        C709   1.400       .  A
C708        S713   1.807       .  S
C709        C710   1.402       .  A
C709        H714   1.083       .  S
C710        C711   1.413       .  A
C711        C712   1.402       .  A
C711        S715   1.803       .  S
C712        H716   1.084       .  S
S713        H718   1.407       .  S
S715        H719   1.406       .  S
C721        C722   1.403       .  A
C721        C726   1.402       .  A
C721        H731   1.084       .  S
C722        C727   1.482       .  S
C722        C723   1.411       .  A
C723        C724   1.398       .  A
C723        S728   1.804       .  S
C724        C725   1.405       .  A
C724        H729   1.084       .  S
C725        C726   1.417       .  A
C726        S730   1.803       .  S
C727        C732   1.410       .  A
C727        C736   1.402       .  A
S728        H744   1.406       .  S
S730        H741   1.407       .  S
C732        C733   1.405       .  A
C732        S737   1.807       .  S
C733        C734   1.406       .  A
C733        H738   1.083       .  S
C734        C735   1.413       .  A
C735        C736   1.399       .  A
C735        S739   1.803       .  S
C736        H740   1.084       .  S
S737        H742   1.407       .  S
S739        H743   1.407       .  S
C745        C746   1.400       .  A
C745        C750   1.392       .  A
C745        H755   1.084       .  S
C746        C751   1.471       .  S
C746        C747   1.410       .  A
C747        C748   1.400       .  A
C747        S752   1.804       .  S
C748        C749   1.406       .  A
C748        H753   1.084       .  S
C749        C750   1.412       .  A
C750        S754   1.804       .  S
C751        C756   1.405       .  A
C751        C760   1.398       .  A
S752        H768   1.405       .  S
S754        H765   1.406       .  S
C756        C757   1.397       .  A
C756        S761   1.807       .  S
C757        C758   1.409       .  A
C757        H762   1.082       .  S
C758        C759   1.421       .  A
C759        C760   1.398       .  A
C759        S763   1.802       .  S
C760        H764   1.084       .  S
S761        H766   1.407       .  S
S763        H767   1.408       .  S
C769        C770   1.401       .  A
C769        C774   1.394       .  A
C769        H779   1.084       .  S
C770        C775   1.476       .  S
C770        C771   1.412       .  A
C771        C772   1.398       .  A
C771        S776   1.804       .  S
C772        C773   1.405       .  A
C772        H777   1.084       .  S
C773        C774   1.414       .  A
C774        S778   1.803       .  S
C775        C780   1.410       .  A
C775        C784   1.401       .  A
S776        H792   1.406       .  S
S778        H789   1.406       .  S
C780        C781   1.401       .  A
C780        S785   1.807       .  S
C781        C782   1.403       .  A
C781        H786   1.083       .  S
C782        C783   1.413       .  A
C783        C784   1.394       .  A
C783        S787   1.804       .  S
C784        H788   1.084       .  S
S785        H790   1.407       .  S
S787        H791   1.408       .  S
C793        C794   1.397       .  A
C793        C798   1.395       .  A
C793        H803   1.084       .  S
C794        C799   1.469       .  S
C794        C795   1.408       .  A
C795        C796   1.397       .  A
C795        S800   1.805       .  S
C796        C797   1.408       .  A
C796        H801   1.083       .  S
C797        C798   1.422       .  A
C798        S802   1.803       .  S
C799        C804   1.406       .  A
C799        C808   1.400       .  A
S800        H816   1.404       .  S
S802        H813   1.402       .  S
C804        C805   1.398       .  A
C804        S809   1.807       .  S
C805        C806   1.404       .  A
C805        H810   1.082       .  S
C806        C807   1.413       .  A
C807        C808   1.401       .  A
C807        S811   1.808       .  S
C808        H812   1.083       .  S
S809        H814   1.407       .  S
S811        H815   1.407       .  S
C817        C818   1.403       .  A
C817        C822   1.399       .  A
C817        H827   1.083       .  S
C818        C823   1.474       .  S
C818        C819   1.413       .  A
C819        C820   1.397       .  A
C819        S824   1.805       .  S
C820        C821   1.401       .  A
C820        H825   1.084       .  S
C821        C822   1.408       .  A
C822        S826   1.808       .  S
C823        C828   1.410       .  A
C823        C832   1.401       .  A
S824        H840   1.405       .  S
S826        H837   1.407       .  S
C828        C829   1.402       .  A
C828        S833   1.806       .  S
C829        C830   1.403       .  A
C829        H834   1.083       .  S
C830        C831   1.410       .  A
C831        C832   1.394       .  A
C831        S835   1.801       .  S
C832        H836   1.084       .  S
S833        H838   1.407       .  S
S835        H839   1.406       .  S
C841        C842   1.402       .  A
C841        C846   1.400       .  A
C841        H851   1.084       .  S
C842        C847   1.473       .  S
C842        C843   1.411       .  A
C843        C844   1.393       .  A
C843        S848   1.806       .  S
C844        C845   1.404       .  A
C844        H849   1.084       .  S
C845        C846   1.415       .  A
C846        S850   1.802       .  S
C847        C852   1.409       .  A
C847        C856   1.400       .  A
S848        H864   1.405       .  S
S850        H861   1.408       .  S
C852        C853   1.399       .  A
C852        S857   1.807       .  S
C853        C854   1.404       .  A
C853        H858   1.083       .  S
C854        C855   1.414       .  A
C855        C856   1.397       .  A
C855        S859   1.803       .  S
C856        H860   1.084       .  S
S857        H862   1.407       .  S
S859        H863   1.408       .  S
C865        C866   1.402       .  A
C865        C870   1.398       .  A
C865        H875   1.084       .  S
C866        C871   1.479       .  S
C866        C867   1.412       .  A
C867        C868   1.398       .  A
C867        S872   1.804       .  S
C868        C869   1.404       .  A
C868        H873   1.084       .  S
C869        C870   1.415       .  A
C870        S874   1.803       .  S
C871        C876   1.409       .  A
C871        C880   1.402       .  A
S872        H888   1.406       .  S
S874        H885   1.406       .  S
C876        C877   1.402       .  A
C876        S881   1.807       .  S
C877        C878   1.405       .  A
C877        H882   1.083       .  S
C878        C879   1.416       .  A
C879        C880   1.399       .  A
C879        S883   1.803       .  S
C880        H884   1.084       .  S
S881        H886   1.407       .  S
S883        H887   1.407       .  S
C889        C890   1.399       .  A
C889        C894   1.400       .  A
C889        H899   1.083       .  S
C890        C895   1.469       .  S
C890        C891   1.410       .  A
C891        C892   1.393       .  A
C891        S896   1.807       .  S
C892        C893   1.404       .  A
C892        H897   1.084       .  S
C893        C894   1.417       .  A
C894        S898   1.808       .  S
C895        C900   1.406       .  A
C895        C904   1.399       .  A
S896        H912   1.406       .  S
S898        H909   1.407       .  S
C900        C901   1.397       .  A
C900        S905   1.807       .  S
C901        C902   1.407       .  A
C901        H906   1.082       .  S
C902        C903   1.416       .  A
C903        C904   1.395       .  A
C903        S907   1.803       .  S
C904        H908   1.084       .  S
S905        H910   1.407       .  S
S907        H911   1.408       .  S
C913        C914   1.402       .  A
C913        C918   1.402       .  A
C913        H923   1.083       .  S
C914        C919   1.473       .  S
C914        C915   1.408       .  A
C915        C916   1.392       .  A
C915        S920   1.805       .  S
C916        C917   1.406       .  A
C916        H921   1.084   1_655  S
C917        C918   1.416       .  A
C918        S922   1.808       .  S
C919        C924   1.408       .  A
C919        C928   1.401       .  A
S920        H936   1.406       .  S
S922        H933   1.407       .  S
C924        C925   1.398       .  A
C924        S929   1.808       .  S
C925        C926   1.406       .  A
C925        H930   1.083       .  S
C926        C927   1.415       .  A
C927        C928   1.397       .  A
C927        S931   1.802       .  S
C928        H932   1.084       .  S
S929        H934   1.407       .  S
S931        H935   1.408       .  S
C937        C938   1.399       .  A
C937        C942   1.395       .  A
C937        H947   1.084       .  S
C938        C943   1.468       .  S
C938        C939   1.411       .  A
C939        C940   1.395       .  A
C939        S944   1.806       .  S
C940        C941   1.402       .  A
C940        H945   1.084       .  S
C941        C942   1.413       .  A
C942        S946   1.803       .  S
C943        C948   1.406       .  A
C943        C952   1.399       .  A
S944        H960   1.405       .  S
S946        H957   1.407       .  S
C948        C949   1.398       .  A
C948        S953   1.807       .  S
C949        C950   1.406       .  A
C949        H954   1.083       .  S
C950        C951   1.415       .  A
C951        C952   1.395       .  A
C951        S955   1.803       .  S
C952        H956   1.084       .  S
S953        H958   1.407       .  S
S955        H959   1.408       .  S
C961        C962   1.401       .  A
C961        C966   1.394       .  A
C961        H971   1.084       .  S
C962        C967   1.472       .  S
C962        C963   1.410       .  A
C963        C964   1.399       .  A
C963        S968   1.804       .  S
C964        C965   1.406       .  A
C964        H969   1.084       .  S
C965        C966   1.414       .  A
C966        S970   1.804       .  S
C967        C972   1.408       .  A
C967        C976   1.399       .  A
S968        H984   1.405       .  S
S970        H981   1.408       .  S
C972        C973   1.399       .  A
C972        S977   1.807       .  S
C973        C974   1.404       .  A
C973        H978   1.083       .  S
C974        C975   1.416       .  A
C975        C976   1.397       .  A
C975        S979   1.804       .  S
C976        H980   1.084       .  S
S977        H982   1.407       .  S
S979        H983   1.408       .  S
C985        C986   1.404       .  A
C985        C990   1.396       .  A
C985        H995   1.084       .  S
C986        C991   1.476       .  S
C986        C987   1.411       .  A
C987        C988   1.396       .  A
C987        S992   1.804       .  S
C988        C989   1.403       .  A
C988        H993   1.084       .  S
C989        C990   1.411       .  A
C990        S994   1.805       .  S
C991        C996   1.409       .  A
C991       C1000   1.403       .  A
S992       H1008   1.406       .  S
S994       H1005   1.403       .  S
C996        C997   1.400       .  A
C996       S1001   1.807       .  S
C997        C998   1.402       .  A
C997       H1002   1.081       .  S
C998        C999   1.410       .  A
C999       C1000   1.395       .  A
C999       S1003   1.804       .  S
C1000      H1004   1.084       .  S
S1001      H1006   1.407       .  S
S1003      H1007   1.404       .  S
C1009      C1010   1.400       .  A
C1009      C1014   1.395       .  A
C1009      H1019   1.084       .  S
C1010      C1015   1.467       .  S
C1010      C1011   1.411       .  A
C1011      C1012   1.395       .  A
C1011      S1016   1.805       .  S
C1012      C1013   1.402       .  A
C1012      H1017   1.084       .  S
C1013      C1014   1.411       .  A
C1014      S1018   1.804       .  S
C1015      C1020   1.407       .  A
C1015      C1024   1.400       .  A
S1016      H1032   1.405       .  S
S1018      H1029   1.407       .  S
C1020      C1021   1.398       .  A
C1020      S1025   1.807       .  S
C1021      C1022   1.404       .  A
C1021      H1026   1.083   1_556  S
C1022      C1023   1.413       .  A
C1023      C1024   1.395       .  A
C1023      S1027   1.804       .  S
C1024      H1028   1.084       .  S
S1025      H1030   1.407   1_556  S
S1027      H1031   1.405       .  S
C1033      C1034   1.402       .  A
C1033      C1038   1.394       .  A
C1033      H1043   1.084       .  S
C1034      C1039   1.476       .  S
C1034      C1035   1.412       .  A
C1035      C1036   1.399       .  A
C1035      S1040   1.804       .  S
C1036      C1037   1.404       .  A
C1036      H1041   1.084       .  S
C1037      C1038   1.413       .  A
C1038      S1042   1.802       .  S
C1039      C1044   1.410       .  A
C1039      C1048   1.401       .  A
S1040      H1056   1.406       .  S
S1042      H1053   1.404       .  S
C1044      C1045   1.399       .  A
C1044      S1049   1.807       .  S
C1045      C1046   1.401       .  A
C1045      H1050   1.082       .  S
C1046      C1047   1.412       .  A
C1047      C1048   1.396       .  A
C1047      S1051   1.800   1_556  S
C1048      H1052   1.084       .  S
S1049      H1054   1.407       .  S
S1051      H1055   1.405       .  S
C1057      C1058   1.403       .  A
C1057      C1062   1.405       .  A
C1057      H1067   1.083       .  S
C1058      C1063   1.482       .  S
C1058      C1059   1.410       .  A
C1059      C1060   1.398       .  A
C1059      S1064   1.805       .  S
C1060      C1061   1.409       .  A
C1060      H1065   1.083       .  S
C1061      C1062   1.417       .  A
C1062      S1066   1.808       .  S
C1063      C1068   1.411       .  A
C1063      C1072   1.401       .  A
S1064      H1080   1.405       .  S
S1066      H1077   1.407       .  S
C1068      C1069   1.404   1_655  A
C1068      S1073   1.807       .  S
C1069      C1070   1.405       .  A
C1069      H1074   1.083       .  S
C1070      C1071   1.416   1_455  A
C1071      C1072   1.399       .  A
C1071      S1075   1.803       .  S
C1072      H1076   1.084       .  S
S1073      H1078   1.407   1_655  S
S1075      H1079   1.407       .  S
C1081      C1082   1.402       .  A
C1081      C1086   1.402       .  A
C1081      H1091   1.083       .  S
C1082      C1087   1.479       .  S
C1082      C1083   1.411       .  A
C1083      C1084   1.400       .  A
C1083      S1088   1.805       .  S
C1084      C1085   1.406       .  A
C1084      H1089   1.084       .  S
C1085      C1086   1.413       .  A
C1086      S1090   1.808       .  S
C1087      C1092   1.410       .  A
C1087      C1096   1.402       .  A
S1088      H1104   1.405       .  S
S1090      H1101   1.407       .  S
C1092      C1093   1.403       .  A
C1092      S1097   1.807       .  S
C1093      C1094   1.404       .  A
C1093      H1098   1.083       .  S
C1094      C1095   1.413       .  A
C1095      C1096   1.399       .  A
C1095      S1099   1.803       .  S
C1096      H1100   1.084       .  S
S1097      H1102   1.407       .  S
S1099      H1103   1.407       .  S
C1105      C1106   1.400       .  A
C1105      C1110   1.396       .  A
C1105      H1115   1.084       .  S
C1106      C1111   1.473       .  S
C1106      C1107   1.411       .  A
C1107      C1108   1.399       .  A
C1107      S1112   1.804       .  S
C1108      C1109   1.405       .  A
C1108      H1113   1.084       .  S
C1109      C1110   1.414       .  A
C1110      S1114   1.804       .  S
C1111      C1116   1.409       .  A
C1111      C1120   1.400       .  A
S1112      H1128   1.405       .  S
S1114      H1125   1.408       .  S
C1116      C1117   1.402       .  A
C1116      S1121   1.807       .  S
C1117      C1118   1.402       .  A
C1117      H1122   1.083       .  S
C1118      C1119   1.411       .  A
C1119      C1120   1.396       .  A
C1119      S1123   1.803       .  S
C1120      H1124   1.084       .  S
S1121      H1126   1.407       .  S
S1123      H1127   1.406       .  S
C1129      C1130   1.401       .  A
C1129      C1134   1.393       .  A
C1129      H1139   1.084       .  S
C1130      C1135   1.470       .  S
C1130      C1131   1.410       .  A
C1131      C1132   1.397       .  A
C1131      S1136   1.804       .  S
C1132      C1133   1.405       .  A
C1132      H1137   1.084       .  S
C1133      C1134   1.412       .  A
C1134      S1138   1.804       .  S
C1135      C1140   1.407       .  A
C1135      C1144   1.399       .  A
S1136      H1152   1.406       .  S
S1138      H1149   1.408       .  S
C1140      C1141   1.400       .  A
C1140      S1145   1.807       .  S
C1141      C1142   1.405       .  A
C1141      H1146   1.083       .  S
C1142      C1143   1.413       .  A
C1143      C1144   1.394       .  A
C1143      S1147   1.800       .  S
C1144      H1148   1.084       .  S
S1145      H1150   1.407       .  S
S1147      H1151   1.407       .  S
C1153      C1154   1.400       .  A
C1153      C1158   1.397       .  A
C1153      H1163   1.084       .  S
C1154      C1159   1.470       .  S
C1154      C1155   1.411       .  A
C1155      C1156   1.396       .  A
C1155      S1160   1.805       .  S
C1156      C1157   1.402       .  A
C1156      H1161   1.084       .  S
C1157      C1158   1.413       .  A
C1158      S1162   1.803       .  S
C1159      C1164   1.407       .  A
C1159      C1168   1.398       .  A
S1160      H1176   1.405       .  S
S1162      H1173   1.406       .  S
C1164      C1165   1.401       .  A
C1164      S1169   1.807       .  S
C1165      C1166   1.406       .  A
C1165      H1170   1.083       .  S
C1166      C1167   1.415       .  A
C1167      C1168   1.395       .  A
C1167      S1171   1.803       .  S
C1168      H1172   1.084       .  S
S1169      H1174   1.407       .  S
S1171      H1175   1.408       .  S
C1177      C1178   1.402       .  A
C1177      C1182   1.399       .  A
C1177      H1187   1.084       .  S
C1178      C1183   1.477       .  S
C1178      C1179   1.411       .  A
C1179      C1180   1.397       .  A
C1179      S1184   1.804       .  S
C1180      C1181   1.405       .  A
C1180      H1185   1.084       .  S
C1181      C1182   1.414       .  A
C1182      S1186   1.803       .  S
C1183      C1188   1.408       .  A
C1183      C1192   1.402       .  A
S1184      H1200   1.406       .  S
S1186      H1197   1.408       .  S
C1188      C1189   1.402       .  A
C1188      S1193   1.806       .  S
C1189      C1190   1.405       .  A
C1189      H1194   1.082       .  S
C1190      C1191   1.414       .  A
C1191      C1192   1.397       .  A
C1191      S1195   1.804       .  S
C1192      H1196   1.084       .  S
S1193      H1198   1.407       .  S
S1195      H1199   1.408       .  S
C1201      C1202   1.401       .  A
C1201      C1206   1.397       .  A
C1201      H1211   1.084       .  S
C1202      C1207   1.476       .  S
C1202      C1203   1.410       .  A
C1203      C1204   1.397       .  A
C1203      S1208   1.804       .  S
C1204      C1205   1.406       .  A
C1204      H1209   1.084       .  S
C1205      C1206   1.417       .  A
C1206      S1210   1.803       .  S
C1207      C1212   1.408       .  A
C1207      C1216   1.400       .  A
S1208      H1224   1.406       .  S
S1210      H1221   1.407       .  S
C1212      C1213   1.403       .  A
C1212      S1217   1.806       .  S
C1213      C1214   1.406       .  A
C1213      H1218   1.083       .  S
C1214      C1215   1.416       .  A
C1215      C1216   1.395       .  A
C1215      S1219   1.803       .  S
C1216      H1220   1.084       .  S
S1217      H1222   1.407       .  S
S1219      H1223   1.407       .  S
C1225      C1226   1.403       .  A
C1225      C1230   1.399       .  A
C1225      H1235   1.084       .  S
C1226      C1231   1.471       .  S
C1226      C1227   1.410       .  A
C1227      C1228   1.393       .  A
C1227      S1232   1.806       .  S
C1228      C1229   1.402       .  A
C1228      H1233   1.084       .  S
C1229      C1230   1.411       .  A
C1230      S1234   1.803       .  S
C1231      C1236   1.410       .  A
C1231      C1240   1.398       .  A
S1232      H1248   1.405       .  S
S1234      H1245   1.407       .  S
C1236      C1237   1.401       .  A
C1236      S1241   1.807       .  S
C1237      C1238   1.403       .  A
C1237      H1242   1.083       .  S
C1238      C1239   1.415       .  A
C1239      C1240   1.394       .  A
C1239      S1243   1.804       .  S
C1240      H1244   1.084       .  S
S1241      H1246   1.407       .  S
S1243      H1247   1.407       .  S
C1249      C1250   1.400       .  A
C1249      C1254   1.395       .  A
C1249      H1259   1.084       .  S
C1250      C1255   1.477       .  S
C1250      C1251   1.412       .  A
C1251      C1252   1.399       .  A
C1251      S1256   1.805       .  S
C1252      C1253   1.405       .  A
C1252      H1257   1.084       .  S
C1253      C1254   1.416       .  A
C1254      S1258   1.803       .  S
C1255      C1260   1.408       .  A
C1255      C1264   1.403       .  A
S1256      H1272   1.405       .  S
S1258      H1269   1.408       .  S
C1260      C1261   1.397       .  A
C1260      S1265   1.809       .  S
C1261      C1262   1.407       .  A
C1261      H1266   1.083       .  S
C1262      C1263   1.415       .  A
C1263      C1264   1.400       .  A
C1263      S1267   1.799       .  S
C1264      H1268   1.084       .  S
S1265      H1270   1.407       .  S
S1267      H1271   1.407       .  S
C1273      C1274   1.400       .  A
C1273      C1278   1.397       .  A
C1273      H1283   1.084       .  S
C1274      C1279   1.474       .  S
C1274      C1275   1.409       .  A
C1275      C1276   1.397       .  A
C1275      S1280   1.804       .  S
C1276      C1277   1.406       .  A
C1276      H1281   1.084       .  S
C1277      C1278   1.416       .  A
C1278      S1282   1.803       .  S
C1279      C1284   1.407       .  A
C1279      C1288   1.401       .  A
S1280      H1296   1.406       .  S
S1282      H1293   1.408       .  S
C1284      C1285   1.401       .  A
C1284      S1289   1.806       .  S
C1285      C1286   1.405       .  A
C1285      H1290   1.083       .  S
C1286      C1287   1.414       .  A
C1287      C1288   1.397       .  A
C1287      S1291   1.804       .  S
C1288      H1292   1.084       .  S
S1289      H1294   1.407       .  S
S1291      H1295   1.404       .  S
C1297      C1298   1.400       .  A
C1297      C1302   1.397       .  A
C1297      H1307   1.084       .  S
C1298      C1303   1.471       .  S
C1298      C1299   1.410       .  A
C1299      C1300   1.396       .  A
C1299      S1304   1.806       .  S
C1300      C1301   1.406       .  A
C1300      H1305   1.084       .  S
C1301      C1302   1.416       .  A
C1302      S1306   1.802       .  S
C1303      C1308   1.407       .  A
C1303      C1312   1.400       .  A
S1304      H1320   1.405       .  S
S1306      H1317   1.407       .  S
C1308      C1309   1.401       .  A
C1308      S1313   1.806       .  S
C1309      C1310   1.405       .  A
C1309      H1314   1.083       .  S
C1310      C1311   1.413       .  A
C1311      C1312   1.395       .  A
C1311      S1315   1.804   1_556  S
C1312      H1316   1.084       .  S
S1313      H1318   1.407       .  S
S1315      H1319   1.407       .  S
C1321      C1322   1.402       .  A
C1321      C1326   1.395   1_556  A
C1321      H1331   1.084       .  S
C1322      C1327   1.470       .  S
C1322      C1323   1.412       .  A
C1323      C1324   1.397       .  A
C1323      S1328   1.805       .  S
C1324      C1325   1.400       .  A
C1324      H1329   1.084       .  S
C1325      C1326   1.409   1_556  A
C1326      S1330   1.804       .  S
C1327      C1332   1.408       .  A
C1327      C1336   1.399       .  A
S1328      H1344   1.405       .  S
S1330      H1341   1.403       .  S
C1332      C1333   1.402       .  A
C1332      S1337   1.806       .  S
C1333      C1334   1.405       .  A
C1333      H1338   1.083       .  S
C1334      C1335   1.413       .  A
C1335      C1336   1.393       .  A
C1335      S1339   1.804       .  S
C1336      H1340   1.084       .  S
S1337      H1342   1.407       .  S
S1339      H1343   1.407       .  S
C1345      C1346   1.398       .  A
C1345      C1350   1.397       .  A
C1345      H1355   1.084       .  S
C1346      C1351   1.467       .  S
C1346      C1347   1.407       .  A
C1347      C1348   1.393       .  A
C1347      S1352   1.806       .  S
C1348      C1349   1.409       .  A
C1348      H1353   1.083       .  S
C1349      C1350   1.420       .  A
C1350      S1354   1.801       .  S
C1351      C1356   1.406       .  A
C1351      C1360   1.399       .  A
S1352      H1368   1.405       .  S
S1354      H1365   1.407       .  S
C1356      C1357   1.397       .  A
C1356      S1361   1.807       .  S
C1357      C1358   1.405       .  A
C1357      H1362   1.083       .  S
C1358      C1359   1.413       .  A
C1359      C1360   1.396       .  A
C1359      S1363   1.800       .  S
C1360      H1364   1.084       .  S
S1361      H1366   1.407       .  S
S1363      H1367   1.406       .  S
C1369      C1370   1.401       .  A
C1369      C1374   1.398       .  A
C1369      H1379   1.084       .  S
C1370      C1375   1.475       .  S
C1370      C1371   1.411       .  A
C1371      C1372   1.396       .  A
C1371      S1376   1.805       .  S
C1372      C1373   1.404       .  A
C1372      H1377   1.084       .  S
C1373      C1374   1.415       .  A
C1374      S1378   1.803       .  S
C1375      C1380   1.405       .  A
C1375      C1384   1.400       .  A
S1376      H1392   1.405       .  S
S1378      H1389   1.407       .  S
C1380      C1381   1.400       .  A
C1380      S1385   1.807       .  S
C1381      C1382   1.409       .  A
C1381      H1386   1.082       .  S
C1382      C1383   1.418       .  A
C1383      C1384   1.401       .  A
C1383      S1387   1.809       .  S
C1384      H1388   1.083       .  S
S1385      H1390   1.407       .  S
S1387      H1391   1.407       .  S
C1393      C1394   1.400       .  A
C1393      C1398   1.403       .  A
C1393      H1403   1.083       .  S
C1394      C1399   1.470       .  S
C1394      C1395   1.408       .  A
C1395      C1396   1.391       .  A
C1395      S1400   1.806       .  S
C1396      C1397   1.406       .  A
C1396      H1401   1.084       .  S
C1397      C1398   1.417       .  A
C1398      S1402   1.808       .  S
C1399      C1404   1.406       .  A
C1399      C1408   1.399       .  A
S1400      H1416   1.405       .  S
S1402      H1413   1.407       .  S
C1404      C1405   1.399       .  A
C1404      S1409   1.807       .  S
C1405      C1406   1.407       .  A
C1405      H1410   1.082       .  S
C1406      C1407   1.416       .  A
C1407      C1408   1.396       .  A
C1407      S1411   1.803       .  S
C1408      H1412   1.084       .  S
S1409      H1414   1.407       .  S
S1411      H1415   1.408       .  S
C1417      C1418   1.402       .  A
C1417      C1422   1.398       .  A
C1417      H1427   1.084       .  S
C1418      C1423   1.477       .  S
C1418      C1419   1.412       .  A
C1419      C1420   1.396       .  A
C1419      S1424   1.806       .  S
C1420      C1421   1.405       .  A
C1420      H1425   1.084       .  S
C1421      C1422   1.415       .  A
C1422      S1426   1.803       .  S
C1423      C1428   1.409       .  A
C1423      C1432   1.401       .  A
S1424      H1440   1.405       .  S
S1426      H1437   1.407       .  S
C1428      C1429   1.402       .  A
C1428      S1433   1.807       .  S
C1429      C1430   1.407       .  A
C1429      H1434   1.082       .  S
C1430      C1431   1.415       .  A
C1431      C1432   1.396       .  A
C1431      S1435   1.803       .  S
C1432      H1436   1.084       .  S
S1433      H1438   1.407       .  S
S1435      H1439   1.408       .  S
C1441      C1442   1.403       .  A
C1441      C1446   1.401       .  A
C1441      H1451   1.084       .  S
C1442      C1447   1.471       .  S
C1442      C1443   1.409       .  A
C1443      C1444   1.392       .  A
C1443      S1448   1.805       .  S
C1444      C1445   1.401       .  A
C1444      H1449   1.084   1_556  S
C1445      C1446   1.414       .  A
C1446      S1450   1.804       .  S
C1447      C1452   1.405       .  A
C1447      C1456   1.400       .  A
S1448      H1464   1.405       .  S
S1450      H1461   1.405       .  S
C1452      C1453   1.401       .  A
C1452      S1457   1.806       .  S
C1453      C1454   1.407       .  A
C1453      H1458   1.083       .  S
C1454      C1455   1.416       .  A
C1455      C1456   1.395       .  A
C1455      S1459   1.803       .  S
C1456      H1460   1.084       .  S
S1457      H1462   1.407       .  S
S1459      H1463   1.408       .  S
C1465      C1466   1.401       .  A
C1465      C1470   1.396       .  A
C1465      H1475   1.084       .  S
C1466      C1471   1.473       .  S
C1466      C1467   1.410       .  A
C1467      C1468   1.397       .  A
C1467      S1472   1.805       .  S
C1468      C1469   1.406       .  A
C1468      H1473   1.084       .  S
C1469      C1470   1.415       .  A
C1470      S1474   1.802       .  S
C1471      C1476   1.409       .  A
C1471      C1480   1.400       .  A
S1472      H1488   1.405       .  S
S1474      H1485   1.408   1_655  S
C1476      C1477   1.403       .  A
C1476      S1481   1.806       .  S
C1477      C1478   1.404       .  A
C1477      H1482   1.083       .  S
C1478      C1479   1.413       .  A
C1479      C1480   1.394       .  A
C1479      S1483   1.804       .  S
C1480      H1484   1.084       .  S
S1481      H1486   1.407       .  S
S1483      H1487   1.407       .  S
