geometry optimzed in LAMMPS
_audit_creation_date              2020-11-30 
_audit_creation_method            'lammps2cif' 
_symmetry_space_group_name_H-M    'P1' 
_symmetry_Int_Tables_number       1 
_symmetry_cell_setting            triclinic 
loop_ 
_symmetry_equiv_pos_as_xyz 
  x,y,z 
_cell_length_a                    43.53474023396701 
_cell_length_b                    43.61393789173737 
_cell_length_c                    43.490183807142046 
_cell_angle_alpha                 90.12654839016268 
_cell_angle_beta                  89.89822388340326 
_cell_angle_gamma                 90.11980704684454 
loop_ 
_atom_site_label 
_atom_site_type_symbol 
_atom_site_fract_x 
_atom_site_fract_y 
_atom_site_fract_z 
_atom_site_charge 
O1          O  0.41373606  0.00295093  0.19981097    -0.75170
O2          O  0.45153488  0.00038760  0.16360507    -0.54080
C3          C  0.42320673  0.00248265  0.17172124     0.78560
O4          O  0.50230918  0.08487150  0.30303317    -0.59770
O5          O  0.50046481  0.04678299  0.33881410    -0.52800
C6          C  0.50171029  0.07515872  0.33100822     0.70570
O7          O  0.49650571  0.08432768  0.19896671    -0.74330
O8          O  0.99774655  0.04649306  0.16288622    -0.54890
C9          C  0.49635530  0.07486515  0.17086071     0.76570
O10         O  0.41421835  0.99839868  0.30377358    -0.59470
O11         O  0.45291627  0.49887501  0.33924848    -0.52590
C12         C  0.42444061  0.99842398  0.33153648     0.73170
Zr13       Zr  0.43513553  0.99970218  0.25162126     2.54710
O14         O  0.39666831  0.04007074  0.25384036    -0.80040
O15         O  0.39609912  0.45963306  0.25064762    -0.93460
Zr16       Zr  0.50012551  0.06371132  0.25097015     2.64680
O17         O  0.46124582  0.10375992  0.25222960    -0.98410
O18         O  0.04151699  0.10132811  0.24911321    -0.80470
O19         O  0.46705802  0.03196677  0.22157262    -0.83830
O20         O  0.46732860  0.03231186  0.28111987    -2.18540
O21         O  0.99927403  0.41423647  0.30298570    -0.67220
O22         O  0.50059193  0.45222635  0.33894312    -0.51790
C23         C  0.00007025  0.42382410  0.33103499     0.71550
O24         O  0.08446218  0.49604928  0.19812359    -0.60130
O25         O  0.04650985  0.99839624  0.16234507    -0.52110
C26         C  0.07494706  0.49674868  0.17010690     0.73350
O27         O  0.08583572  0.50104165  0.30166055    -0.71520
O28         O  0.04820651  0.50029587  0.33810034    -0.50200
C29         C  0.07658870  0.50117888  0.32979817     0.74730
O30         O  0.99874124  0.41365697  0.19896838    -0.66850
O31         O  0.99949967  0.45161445  0.16296596    -0.54050
C32         C  0.99899894  0.42324828  0.17096802     0.73120
Zr33       Zr  0.99898849  0.43504928  0.25089153     2.77540
O34         O  0.03807267  0.39518079  0.25035313    -0.97600
O35         O  0.45772731  0.39729478  0.25118448    -0.78420
Zr36       Zr  0.06392596  0.49932261  0.25012858     2.70070
O37         O  0.10479664  0.46138289  0.25187936    -0.79670
O38         O  0.10058045  0.04141382  0.24671453    -0.98750
Zr39       Zr  0.99923398  0.99915390  0.19188396     2.21500
Zr40       Zr  0.50020423  0.49941624  0.30985473     2.11130
O41         O  0.03245929  0.46657350  0.28016835    -2.47440
O42         O  0.03189123  0.46639158  0.22079689    -0.79460
O43         O  0.46681966  0.46688192  0.28118191    -0.71660
O44         O  0.03237249  0.03204627  0.22050717    -2.32620
O45         O  0.46622809  0.46674820  0.22131353    -2.28820
O46         O  0.03284939  0.03203305  0.28053455    -0.73420
H47         H  0.45494750  0.04490555  0.29457041     0.78580
H48         H  0.04486113  0.04443413  0.20697242     0.79670
H49         H  0.04521487  0.45407123  0.29324797     0.81890
H50         H  0.45343324  0.45431919  0.20809700     0.79500
H51         H  0.05271503  0.09685062  0.22979253     0.42530
H52         H  0.09673299  0.05392391  0.26534829     0.41500
H53         H  0.09488299  0.44210254  0.24502037     0.41180
H54         H  0.05170597  0.40017835  0.26786723     0.39110
H55         H  0.44149658  0.40663272  0.26411815     0.42250
H56         H  0.40085245  0.44726728  0.23213266     0.37030
H57         H  0.40534293  0.05679648  0.24112473     0.43150
H58         H  0.44808468  0.09867086  0.27009892     0.39560
H59         H  0.02706510  0.37637241  0.25682590     0.44480
H60         H  0.37684951  0.47049231  0.24544716     0.43200
H61         H  0.47251838  0.12246899  0.25857425     0.43340
H62         H  0.12080150  0.03175248  0.25038602     0.43700
O63         O  0.49707075  0.19836516  0.08644243    -0.75170
O64         O  0.99830492  0.16195436  0.04895140    -0.54080
C65         C  0.49688043  0.17025718  0.07733267     0.78560
O66         O  0.41562430  0.30195628  0.00011236    -0.59770
O67         O  0.45381647  0.33767780  0.00024350    -0.52800
C68         C  0.42533245  0.32991210  0.99998192     0.70570
O69         O  0.41454373  0.19815020  0.00228198    -0.74330
O70         O  0.45220999  0.16190208  0.00193685    -0.54890
C71         C  0.42383958  0.17012589  0.00215573     0.76570
O72         O  0.50061316  0.30187246  0.08633729    -0.59470
O73         O  0.50208750  0.33747009  0.04799806    -0.52590
C74         C  0.50133859  0.32971594  0.07650200     0.73170
Zr75       Zr  0.50088172  0.24996468  0.06524704     2.54710
O76         O  0.46264616  0.25150921  0.10610292    -0.80040
O77         O  0.04283414  0.24907646  0.10221555    -0.93460
Zr78       Zr  0.43607486  0.24984164  0.00128833     2.64680
O79         O  0.39749551  0.25049744  0.04191551    -0.98410
O80         O  0.39671649  0.24956141  0.46158639    -0.80470
O81         O  0.46780701  0.22014184  0.03387822    -0.83830
O82         O  0.46809077  0.27963626  0.03370941    -2.18540
O83         O  0.08641401  0.30104562  0.00179420    -0.67220
O84         O  0.04848734  0.33694456  0.99983015    -0.51790
C85         C  0.07686235  0.32898856  0.50089795     0.71550
O86         O  0.00297766  0.19735317  0.41536331    -0.60130
O87         O  0.00055186  0.16154340  0.45340618    -0.52110
C88         C  0.00239891  0.16945613  0.42497099     0.73350
O89         O  0.99969879  0.30071694  0.41511464    -0.71520
O90         O  0.50084561  0.33694716  0.45284016    -0.50200
C91         C  0.00044090  0.32875991  0.42441385     0.74730
O92         O  0.08553323  0.19749063  0.99886845    -0.66850
O93         O  0.04776785  0.16140783  0.00101250    -0.54050
C94         C  0.07622747  0.16948170  0.49987370     0.73120
Zr95       Zr  0.06480605  0.24927774  0.00049239     2.77540
O96         O  0.10426914  0.24967931  0.46072119    -0.97600
O97         O  0.10293892  0.24746620  0.04129605    -0.78420
Zr98       Zr  0.99997903  0.24905635  0.43647516     2.70070
O99         O  0.03861573  0.25067811  0.39600505    -0.79670
O100        O  0.45827317  0.24673066  0.39931269    -0.98750
Zr101      Zr  0.00010499  0.19038731  0.00114359     2.21500
Zr102      Zr  0.50089224  0.30835703  0.00049703     2.11130
O103        O  0.03325256  0.27880342  0.46764412    -2.47440
O104        O  0.03274270  0.21939026  0.46809612    -0.79460
O105        O  0.03362010  0.27954463  0.03330636    -0.71660
O106        O  0.46730434  0.21952066  0.46845390    -2.32620
O107        O  0.03322870  0.21966183  0.03359358    -2.28820
O108        O  0.46763385  0.27934309  0.46810996    -0.73420
H109        H  0.45565451  0.29301063  0.04631647     0.78580
H110        H  0.45467136  0.20624937  0.45591782     0.79670
H111        H  0.04587873  0.29183698  0.45486973     0.81890
H112        H  0.04573638  0.20642234  0.04617296     0.79500
H113        H  0.40395703  0.23439716  0.44624614     0.42530
H114        H  0.44457172  0.26390921  0.40507320     0.41500
H115        H  0.05670026  0.24033279  0.40501399     0.41180
H116        H  0.09945264  0.26771280  0.44782414     0.39110
H117        H  0.09562122  0.26252454  0.05670889     0.42250
H118        H  0.05290810  0.22897385  0.09911086     0.37030
H119        H  0.44433211  0.24144675  0.09710447     0.43150
H120        H  0.40275080  0.26854267  0.05473186     0.39560
H121        H  0.12336357  0.25542367  0.47167332     0.44480
H122        H  0.03253805  0.24728572  0.12245366     0.43200
H123        H  0.37822876  0.25632738  0.03138656     0.43340
H124        H  0.46777495  0.25322227  0.37966704     0.43700
O125        O  0.30222751  0.08483743  0.00191447    -0.75170
O126        O  0.33832439  0.04702457  0.00139181    -0.54080
C127        C  0.33025714  0.07536545  0.00202931     0.78560
O128        O  0.19892779  0.49763490  0.08583867    -0.59770
O129        O  0.16276559  0.99800785  0.04817942    -0.52800
C130        C  0.17085619  0.99748082  0.07662169     0.70570
O131        O  0.30256698  0.50230726  0.08580940    -0.74330
O132        O  0.33844887  0.50070611  0.04765816    -0.54890
C133        C  0.33055224  0.00216057  0.07611854     0.76570
O134        O  0.19818249  0.08413248  0.99966593    -0.59470
O135        O  0.16235734  0.04605687  0.00044511    -0.52590
C136        C  0.17014607  0.07450347  0.99997649     0.73170
Zr137      Zr  0.25033298  0.06349475  0.00031336     2.54710
O138        O  0.24910622  0.10245999  0.04044656    -0.80040
O139        O  0.25077033  0.10209737  0.45993731    -0.93460
Zr140      Zr  0.25076104  0.49923142  0.06473205     2.64680
O141        O  0.25023224  0.03846310  0.10465898    -0.98410
O142        O  0.25173329  0.45827362  0.10269940    -0.80470
O143        O  0.28029052  0.03200062  0.03288038    -0.83830
O144        O  0.22073651  0.03178728  0.03324552    -2.18540
O145        O  0.19859526  0.00106269  0.41471639    -0.67220
O146        O  0.16276613  0.99942836  0.45292873    -0.51790
C147        C  0.17059190  0.50057394  0.42443752     0.71550
O148        O  0.30244650  0.41423395  0.99757093    -0.60130
O149        O  0.33860801  0.45190956  0.99992831    -0.52110
C150        C  0.33048288  0.42353601  0.49867155     0.73350
O151        O  0.19918293  0.41343208  0.00229400    -0.71520
O152        O  0.16303195  0.45110450  0.00044131    -0.50200
C153        C  0.17116931  0.42279737  0.50180047     0.74730
O154        O  0.30266319  0.99754555  0.41422855    -0.66850
O155        O  0.33843949  0.49898661  0.45264270    -0.54050
C156        C  0.33050101  0.49797484  0.42423892     0.73120
Zr157      Zr  0.25066467  0.99933490  0.43567517     2.77540
O158        O  0.24965995  0.46012777  0.39573352    -0.97600
O159        O  0.25220393  0.04065147  0.39815583    -0.78420
Zr160      Zr  0.25077191  0.43510306  0.00036589     2.70070
O161        O  0.24854916  0.39400116  0.46248907    -0.79670
O162        O  0.25402986  0.39881178  0.04268015    -0.98750
Zr163      Zr  0.30961502  0.49941404  0.00016500     2.21500
Zr164      Zr  0.19160704  0.99887394  0.00043318     2.11130
O165        O  0.22098156  0.46640268  0.46742108    -2.47440
O166        O  0.28044727  0.46669414  0.46735739    -0.79460
O167        O  0.22059264  0.03169262  0.46760189    -0.71660
O168        O  0.28072906  0.46663736  0.03308266    -2.32620
O169        O  0.28043393  0.03209054  0.46743675    -2.28820
O170        O  0.22079001  0.46645980  0.03317580    -0.73420
H171        H  0.20746665  0.04427981  0.04591449     0.78580
H172        H  0.29411274  0.45417338  0.04555467     0.79670
H173        H  0.20776405  0.45372461  0.45487349     0.81890
H174        H  0.29372772  0.04467044  0.45487946     0.79500
H175        H  0.26906599  0.44498045  0.09644520     0.42530
H176        H  0.23590320  0.40334720  0.05568493     0.41500
H177        H  0.25482884  0.40384733  0.44296985     0.41180
H178        H  0.23199212  0.44682872  0.40107665     0.39110
H179        H  0.23806998  0.05636439  0.40652110     0.42250
H180        H  0.26937729  0.09760545  0.44761881     0.37030
H181        H  0.25891445  0.09255310  0.05837376     0.43150
H182        H  0.23125159  0.05034445  0.10094064     0.39560
H183        H  0.24306812  0.47112459  0.37698128     0.44480
H184        H  0.25562221  0.12151713  0.47074033     0.43200
H185        H  0.24611770  0.02707556  0.12390786     0.43340
H186        H  0.24940725  0.37866021  0.03321635     0.43700
C187        C  0.40172546  0.35453286  0.99976136    -0.05350
C188        C  0.37110161  0.34681530  0.00642263    -0.32770
C189        C  0.34790653  0.36883605  0.00604090     0.36480
C190        C  0.35486660  0.39969517  0.49895971    -0.05700
C191        C  0.38555504  0.40761130  0.49256061    -0.32670
C192        C  0.40887313  0.38544689  0.49301733     0.36380
H193        H  0.36488850  0.32346370  0.01223028     0.16750
O194        O  0.31865021  0.35992153  0.01374806    -0.60170
H195        H  0.39157376  0.43106322  0.48696238     0.16770
O196        O  0.43832721  0.39422201  0.48597354    -0.60270
H197        H  0.44701359  0.40215478  0.50551040     0.43760
H198        H  0.30987729  0.35104951  0.99465749     0.43720
C199        C  0.40004332  0.14573417  0.00200717    -0.05350
C200        C  0.40627398  0.11691626  0.01501070    -0.32770
C201        C  0.38392238  0.09368241  0.01522403     0.36480
C202        C  0.35470957  0.09907274  0.00229767    -0.05700
C203        C  0.34864354  0.12780392  0.48918312    -0.32670
C204        C  0.37088158  0.15094100  0.48894138     0.36380
H205        H  0.42839653  0.11249515  0.02547079     0.16750
O206        O  0.39043500  0.06634978  0.02932019    -0.60170
H207        H  0.32658733  0.13232230  0.47862218     0.16770
O208        O  0.36424145  0.17812849  0.47462622    -0.60270
H209        H  0.35219471  0.19008703  0.48984919     0.43760
H210        H  0.40202435  0.05428156  0.01383400     0.43720
C211        C  0.10037872  0.35356833  0.50141832    -0.05350
C212        C  0.12850211  0.34815831  0.01615138    -0.32770
C213        C  0.15148644  0.37057330  0.01680468     0.36480
C214        C  0.14669027  0.39916223  0.50249518    -0.05700
C215        C  0.11839632  0.40478531  0.48808731    -0.32670
C216        C  0.09534637  0.38231254  0.48746127     0.36380
H217        H  0.13266544  0.32648048  0.02752310     0.16750
O218        O  0.17811673  0.36466668  0.03252431    -0.60170
H219        H  0.11433226  0.42644901  0.47666310     0.16770
O220        O  0.06865181  0.38816894  0.47183271    -0.60270
H221        H  0.05572949  0.40006374  0.48636609     0.43760
H222        H  0.19072193  0.35200194  0.01837004     0.43720
C223        C  0.14546853  0.09816276  0.00006298    -0.05350
C224        C  0.15351527  0.12897095  0.00512009    -0.32770
C225        C  0.13145344  0.15216178  0.00508380     0.36480
C226        C  0.10015911  0.14506037  0.49998863    -0.05700
C227        C  0.09194290  0.11419488  0.49516152    -0.32670
C228        C  0.11415451  0.09088704  0.49527295     0.36380
H229        H  0.17719449  0.13537260  0.00934578     0.16750
O230        O  0.14087437  0.18162133  0.01102378    -0.60170
H231        H  0.06818417  0.10799120  0.49109336     0.16770
O232        O  0.10494854  0.06126242  0.48989300    -0.60270
H233        H  0.09836479  0.05330944  0.51021946     0.43760
H234        H  0.14843631  0.18959947  0.99104788     0.43720
C235        C  0.40158038  0.99830080  0.35632750    -0.05350
C236        C  0.39001603  0.47036136  0.36732134    -0.32770
C237        C  0.36702093  0.46997231  0.38989831     0.36480
C238        C  0.35523517  0.49774941  0.40133467    -0.05700
C239        C  0.36714574  0.02564759  0.39068977    -0.32670
C240        C  0.39033015  0.02604231  0.36833157     0.36380
H241        H  0.39863240  0.44889947  0.35817275     0.16750
O242        O  0.35574827  0.44244317  0.40017957    -0.60170
H243        H  0.35824573  0.04712435  0.39952985     0.16770
O244        O  0.40117540  0.05355912  0.35755153    -0.60270
H245        H  0.41449640  0.06171911  0.37413628     0.43760
H246        H  0.36840253  0.43729566  0.41838941     0.43720
C247        C  0.14585983  0.50147181  0.40091959    -0.05350
C248        C  0.15271772  0.01234260  0.37130127    -0.32770
C249        C  0.13045404  0.01273350  0.34817220     0.36480
C250        C  0.10039243  0.50209885  0.35425519    -0.05700
C251        C  0.09330496  0.49175342  0.38404271    -0.32670
C252        C  0.11561841  0.49144289  0.40724921     0.36380
H253        H  0.17552970  0.02076819  0.36592241     0.16750
O254        O  0.13819700  0.02450603  0.31996642    -0.60170
H255        H  0.07047939  0.48329659  0.38931824     0.16770
O256        O  0.10784664  0.48004552  0.43559346    -0.60270
H257        H  0.09815061  0.49742416  0.44667217     0.43760
H258        H  0.14900995  0.00766555  0.30909090     0.43720
C259        C  0.14628292  0.99677935  0.10052702    -0.05350
C260        C  0.11515547  0.99596041  0.09180910    -0.32770
C261        C  0.09160727  0.49573265  0.11388331     0.36480
C262        C  0.09885639  0.49611485  0.14555044    -0.05700
C263        C  0.12996782  0.49654022  0.15414137    -0.32850
C264        C  0.15340196  0.49705248  0.13223417     0.36380
H265        H  0.10886518  0.99560369  0.06772239     0.16750
O266        O  0.06169589  0.49470693  0.10408840    -0.60170
H267        H  0.13648556  0.49682015  0.17816785     0.16770
O268        O  0.18321597  0.49760717  0.14238773    -0.60270
H269        H  0.18791929  0.51956880  0.14609554     0.43760
H270        H  0.05631403  0.01625237  0.09930645     0.43720
C271        C  0.39985013  0.00402521  0.14694047    -0.05350
C272        C  0.40713711  0.49325652  0.11730487    -0.32770
C273        C  0.38519802  0.49312997  0.09379441     0.36480
C274        C  0.35512459  0.00369373  0.09968773    -0.05700
C275        C  0.34816922  0.01536137  0.12902762    -0.32670
C276        C  0.37011388  0.01564176  0.15245923     0.36380
H277        H  0.42978923  0.48421466  0.11240203     0.16750
O278        O  0.39307864  0.48122931  0.06564835    -0.60170
H279        H  0.32549983  0.02434399  0.13397094     0.16770
O280        O  0.36240298  0.02813784  0.18039815    -0.60270
H281        H  0.35089866  0.01181431  0.19135215     0.43760
H282        H  0.40315942  0.49833877  0.05450225     0.43720
C283        C  0.50265047  0.09849895  0.35579917    -0.05350
C284        C  0.01727993  0.12666901  0.35027547    -0.32770
C285        C  0.01790614  0.14963815  0.37274248     0.36480
C286        C  0.00354481  0.14483915  0.40144861    -0.05700
C287        C  0.48944665  0.11641896  0.40726009    -0.32670
C288        C  0.48901401  0.09332491  0.38480665     0.36380
H289        H  0.02852869  0.13090886  0.32844233     0.16750
O290        O  0.03358244  0.17629413  0.36674407    -0.60170
H291        H  0.47810310  0.11227227  0.42906107     0.16770
O292        O  0.47392563  0.06639044  0.39098851    -0.60270
H293        H  0.48881775  0.05379847  0.40265894     0.43760
H294        H  0.01949626  0.18873747  0.35395883     0.43720
C295        C  0.00073373  0.40018424  0.35560219    -0.05350
C296        C  0.00830440  0.36987112  0.34772272    -0.32770
C297        C  0.00849448  0.34661617  0.36973255     0.36480
C298        C  0.00098272  0.35322101  0.40065054    -0.05700
C299        C  0.49396946  0.38367146  0.40874901    -0.32670
C300        C  0.49393589  0.40703724  0.38665132     0.36380
H301        H  0.01432397  0.36398171  0.32426030     0.16750
O302        O  0.01705043  0.31768429  0.36076419    -0.60170
H303        H  0.48812573  0.38945430  0.43228161     0.16770
O304        O  0.48621503  0.43620492  0.39559648    -0.60270
H305        H  0.50553269  0.44537502  0.40348897     0.43760
H306        H  0.99832410  0.30839846  0.35167625     0.43720
C307        C  0.50052003  0.35435182  0.09992537    -0.05350
C308        C  0.48368644  0.34961577  0.12706554    -0.32770
C309        C  0.48266761  0.37201552  0.15007144     0.36480
C310        C  0.99876059  0.39982564  0.14630751    -0.05700
C311        C  0.01519175  0.40487684  0.11892219    -0.32670
C312        C  0.01614303  0.38241288  0.09580415     0.36380
H313        H  0.47095490  0.32849657  0.13038451     0.16750
O314        O  0.46483154  0.36699288  0.17561985    -0.60170
H315        H  0.02791150  0.42602000  0.11571191     0.16770
O316        O  0.03368140  0.38747326  0.07006223    -0.60270
H317        H  0.02057292  0.39987079  0.05623759     0.43760
H318        H  0.47730118  0.35360405  0.18910382     0.43720
C319        C  0.49492292  0.09869104  0.14635479    -0.05350
C320        C  0.49480038  0.12978594  0.15493192    -0.32770
C321        C  0.49504056  0.15310370  0.13298901     0.36480
C322        C  0.49525233  0.14586330  0.10128151    -0.05700
C323        C  0.49438167  0.11475214  0.09259216    -0.32670
C324        C  0.49424601  0.09133817  0.11467619     0.36380
H325        H  0.49492527  0.13636989  0.17896266     0.16750
O326        O  0.49495399  0.18292196  0.14309568    -0.60170
H327        H  0.49406721  0.10836151  0.06850994     0.16770
O328        O  0.49312498  0.06144410  0.10487487    -0.60270
H329        H  0.51463175  0.05609843  0.09962770     0.43760
H330        H  0.51682809  0.18805362  0.14690616     0.43720
O331        O  0.41373605  0.00295088  0.69981099    -0.75170
O332        O  0.45153487  0.00038757  0.66360509    -0.54080
C333        C  0.42320672  0.00248261  0.67172126     0.78560
O334        O  0.50230918  0.08487150  0.80303318    -0.59770
O335        O  0.50046482  0.04678299  0.83881410    -0.52800
C336        C  0.50171030  0.07515872  0.83100822     0.70570
O337        O  0.49650574  0.08432767  0.69896671    -0.74330
O338        O  0.99774654  0.04649308  0.66288623    -0.54890
C339        C  0.49635532  0.07486514  0.67086071     0.76570
O340        O  0.41421836  0.99839870  0.80377360    -0.59470
O341        O  0.45291626  0.49887503  0.83924846    -0.52590
C342        C  0.42444063  0.99842398  0.83153650     0.73170
Zr343      Zr  0.43513553  0.99970217  0.75162127     2.54710
O344        O  0.39666832  0.04007073  0.75384036    -0.80040
O345        O  0.39609908  0.45963314  0.75064758    -0.93460
Zr346      Zr  0.50012549  0.06371131  0.75097016     2.64680
O347        O  0.46124575  0.10375985  0.75222959    -0.98410
O348        O  0.04151705  0.10132805  0.74911322    -0.80470
O349        O  0.46705801  0.03196676  0.72157262    -0.83830
O350        O  0.46732860  0.03231186  0.78111988    -2.18540
O351        O  0.99927406  0.41423648  0.80298570    -0.67220
O352        O  0.50059191  0.45222635  0.83894310    -0.51790
C353        C  0.00007027  0.42382410  0.83103498     0.71550
O354        O  0.08446218  0.49604928  0.69812360    -0.60130
O355        O  0.04650985  0.99839624  0.66234508    -0.52110
C356        C  0.07494707  0.49674870  0.67010691     0.73350
O357        O  0.08583574  0.50104168  0.80166053    -0.71520
O358        O  0.04820654  0.50029587  0.83810033    -0.50200
C359        C  0.07658872  0.50117890  0.82979815     0.74730
O360        O  0.99874128  0.41365698  0.69896837    -0.66850
O361        O  0.99949970  0.45161446  0.66296595    -0.54050
C362        C  0.99899898  0.42324829  0.67096801     0.73120
Zr363      Zr  0.99898853  0.43504928  0.75089152     2.77540
O364        O  0.03807274  0.39518082  0.75035311    -0.97600
O365        O  0.45772731  0.39729478  0.75118443    -0.78420
Zr366      Zr  0.06392596  0.49932265  0.75012858     2.70070
O367        O  0.10479675  0.46138304  0.75187938    -0.79670
O368        O  0.10058053  0.04141372  0.74671461    -0.98750
Zr369      Zr  0.99923398  0.99915391  0.69188396     2.21500
Zr370      Zr  0.50020423  0.49941625  0.80985472     2.11130
O371        O  0.03245932  0.46657352  0.78016834    -2.47440
O372        O  0.03189126  0.46639160  0.72079689    -0.79460
O373        O  0.46681964  0.46688194  0.78118190    -0.71660
O374        O  0.03237249  0.03204627  0.72050718    -2.32620
O375        O  0.46622808  0.46674823  0.72131352    -2.28820
O376        O  0.03284938  0.03203304  0.78053456    -0.73420
H377        H  0.45494751  0.04490554  0.79457042     0.78580
H378        H  0.04486113  0.04443412  0.70697243     0.79670
H379        H  0.04521490  0.45407125  0.79324796     0.81890
H380        H  0.45343323  0.45431922  0.70809698     0.79500
H381        H  0.05271494  0.09685070  0.72979242     0.42530
H382        H  0.09673302  0.05392386  0.76534832     0.41500
H383        H  0.09488310  0.44210261  0.74502065     0.41180
H384        H  0.05170603  0.40017838  0.76786722     0.39110
H385        H  0.44149650  0.40663278  0.76411795     0.42250
H386        H  0.40085240  0.44726737  0.73213261     0.37030
H387        H  0.40534292  0.05679645  0.74112470     0.43150
H388        H  0.44808463  0.09867080  0.77009893     0.39560
H389        H  0.02706517  0.37637243  0.75682588     0.44480
H390        H  0.37684948  0.47049242  0.74544713     0.43200
H391        H  0.47251829  0.12246896  0.75857421     0.43340
H392        H  0.12080155  0.03175235  0.75038619     0.43700
O393        O  0.49707077  0.19836515  0.58644243    -0.75170
O394        O  0.99830490  0.16195436  0.54895141    -0.54080
C395        C  0.49688045  0.17025717  0.57733267     0.78560
O396        O  0.41562430  0.30195629  0.50011240    -0.59770
O397        O  0.45381647  0.33767781  0.50024352    -0.52800
C398        C  0.42533245  0.32991211  0.49998195     0.70570
O399        O  0.41454372  0.19815021  0.50228202    -0.74330
O400        O  0.45220998  0.16190209  0.50193687    -0.54890
C401        C  0.42383956  0.17012590  0.50215576     0.76570
O402        O  0.50061320  0.30187246  0.58633730    -0.59470
O403        O  0.50208752  0.33747009  0.54799807    -0.52590
C404        C  0.50133862  0.32971594  0.57650201     0.73170
Zr405      Zr  0.50088174  0.24996468  0.56524705     2.54710
O406        O  0.46264621  0.25150921  0.60610295    -0.80040
O407        O  0.04283413  0.24907647  0.60221558    -0.93460
Zr408      Zr  0.43607485  0.24984165  0.50128836     2.64680
O409        O  0.39749553  0.25049745  0.54191556    -0.98410
O410        O  0.39671653  0.24956140  0.96158633    -0.80470
O411        O  0.46780702  0.22014184  0.53387824    -0.83830
O412        O  0.46809078  0.27963627  0.53370944    -2.18540
O413        O  0.08641404  0.30104559  0.50179425    -0.67220
O414        O  0.04848737  0.33694454  0.49983019    -0.51790
C415        C  0.07686232  0.32898858  0.00089790     0.71550
O416        O  0.00297761  0.19735318  0.91536330    -0.60130
O417        O  0.00055184  0.16154341  0.95340618    -0.52110
C418        C  0.00239887  0.16945614  0.92497098     0.73350
O419        O  0.99969875  0.30071695  0.91511464    -0.71520
O420        O  0.50084561  0.33694715  0.95284014    -0.50200
C421        C  0.00044086  0.32875992  0.92441384     0.74730
O422        O  0.08553323  0.19749061  0.49886848    -0.66850
O423        O  0.04776785  0.16140780  0.50101252    -0.54050
C424        C  0.07622747  0.16948172  0.99987367     0.73120
Zr425      Zr  0.06480607  0.24927772  0.50049241     2.77540
O426        O  0.10426913  0.24967933  0.96072117    -0.97600
O427        O  0.10293894  0.24746615  0.54129607    -0.78420
Zr428      Zr  0.99997900  0.24905636  0.93647516     2.70070
O429        O  0.03861571  0.25067812  0.89600505    -0.79670
O430        O  0.45827320  0.24673067  0.89931269    -0.98750
Zr431      Zr  0.00010500  0.19038731  0.50114360     2.21500
Zr432      Zr  0.50089224  0.30835703  0.50049704     2.11130
O433        O  0.03325253  0.27880344  0.96764411    -2.47440
O434        O  0.03274268  0.21939027  0.96809611    -0.79460
O435        O  0.03362011  0.27954462  0.53330638    -0.71660
O436        O  0.46730436  0.21952065  0.96845388    -2.32620
O437        O  0.03322870  0.21966182  0.53359360    -2.28820
O438        O  0.46763387  0.27934309  0.96810993    -0.73420
H439        H  0.45565453  0.29301063  0.54631650     0.78580
H440        H  0.45467140  0.20624935  0.95591780     0.79670
H441        H  0.04587870  0.29183700  0.95486971     0.81890
H442        H  0.04573637  0.20642233  0.54617298     0.79500
H443        H  0.40395706  0.23439712  0.94624610     0.42530
H444        H  0.44457177  0.26390923  0.90507319     0.41500
H445        H  0.05670023  0.24033276  0.90501398     0.41180
H446        H  0.09945261  0.26771281  0.94782411     0.39110
H447        H  0.09562123  0.26252448  0.55670893     0.42250
H448        H  0.05290804  0.22897382  0.59911093     0.37030
H449        H  0.44433213  0.24144680  0.59710449     0.43150
H450        H  0.40275081  0.26854269  0.55473191     0.39560
H451        H  0.12336355  0.25542372  0.97167329     0.44480
H452        H  0.03253802  0.24728578  0.62245369     0.43200
H453        H  0.37822877  0.25632738  0.53138662     0.43340
H454        H  0.46777499  0.25322225  0.87966703     0.43700
O455        O  0.30222751  0.08483743  0.50191448    -0.75170
O456        O  0.33832440  0.04702458  0.50139183    -0.54080
C457        C  0.33025714  0.07536545  0.50202933     0.78560
O458        O  0.19892780  0.49763489  0.58583870    -0.59770
O459        O  0.16276559  0.99800783  0.54817941    -0.52800
C460        C  0.17085619  0.99748079  0.57662168     0.70570
O461        O  0.30256700  0.50230726  0.58580940    -0.74330
O462        O  0.33844888  0.50070612  0.54765815    -0.54890
C463        C  0.33055223  0.00216054  0.57611855     0.76570
O464        O  0.19818249  0.08413246  0.49966593    -0.59470
O465        O  0.16235734  0.04605685  0.50044511    -0.52590
C466        C  0.17014607  0.07450345  0.49997650     0.73170
Zr467      Zr  0.25033298  0.06349475  0.50031335     2.54710
O468        O  0.24910621  0.10246000  0.54044654    -0.80040
O469        O  0.25077033  0.10209739  0.95993733    -0.93460
Zr470      Zr  0.25076105  0.49923143  0.56473207     2.64680
O471        O  0.25023222  0.03846313  0.60465894    -0.98410
O472        O  0.25173332  0.45827367  0.60269946    -0.80470
O473        O  0.28029052  0.03200062  0.53288038    -0.83830
O474        O  0.22073652  0.03178727  0.53324551    -2.18540
O475        O  0.19859522  0.00106269  0.91471641    -0.67220
O476        O  0.16276610  0.99942836  0.95292875    -0.51790
C477        C  0.17059193  0.50057394  0.92443749     0.71550
O478        O  0.30244650  0.41423396  0.49757094    -0.60130
O479        O  0.33860801  0.45190958  0.49992831    -0.52110
C480        C  0.33048288  0.42353600  0.99867155     0.73350
O481        O  0.19918294  0.41343207  0.50229403    -0.71520
O482        O  0.16303195  0.45110449  0.50044137    -0.50200
C483        C  0.17116930  0.42279738  0.00180042     0.74730
O484        O  0.30266316  0.99754559  0.91422854    -0.66850
O485        O  0.33843951  0.49898660  0.95264271    -0.54050
C486        C  0.33050103  0.49797481  0.92423892     0.73120
Zr487      Zr  0.25066464  0.99933490  0.93567517     2.77540
O488        O  0.24965998  0.46012775  0.89573351    -0.97600
O489        O  0.25220389  0.04065147  0.89815582    -0.78420
Zr490      Zr  0.25077191  0.43510307  0.50036590     2.70070
O491        O  0.24854917  0.39400113  0.96248909    -0.79670
O492        O  0.25402987  0.39881176  0.54268013    -0.98750
Zr493      Zr  0.30961501  0.49941405  0.50016500     2.21500
Zr494      Zr  0.19160705  0.99887392  0.50043317     2.11130
O495        O  0.22098158  0.46640267  0.96742107    -2.47440
O496        O  0.28044729  0.46669412  0.96735739    -0.79460
O497        O  0.22059262  0.03169263  0.96760190    -0.71660
O498        O  0.28072906  0.46663737  0.53308266    -2.32620
O499        O  0.28043391  0.03209054  0.96743675    -2.28820
O500        O  0.22079001  0.46645980  0.53317582    -0.73420
H501        H  0.20746665  0.04427979  0.54591448     0.78580
H502        H  0.29411274  0.45417339  0.54555467     0.79670
H503        H  0.20776406  0.45372461  0.95487347     0.81890
H504        H  0.29372771  0.04467044  0.95487945     0.79500
H505        H  0.26906584  0.44498033  0.59644510     0.42530
H506        H  0.23590322  0.40334717  0.55568492     0.41500
H507        H  0.25482880  0.40384730  0.94296986     0.41180
H508        H  0.23199212  0.44682872  0.90107661     0.39110
H509        H  0.23806998  0.05636441  0.90652112     0.42250
H510        H  0.26937728  0.09760547  0.94761882     0.37030
H511        H  0.25891447  0.09255312  0.55837374     0.43150
H512        H  0.23125156  0.05034446  0.60094059     0.39560
H513        H  0.24306819  0.47112457  0.87698126     0.44480
H514        H  0.25562222  0.12151715  0.97074036     0.43200
H515        H  0.24611769  0.02707561  0.62390783     0.43340
H516        H  0.24940727  0.37866020  0.53321632     0.43700
C517        C  0.40172546  0.35453287  0.49976139    -0.05350
C518        C  0.37110161  0.34681532  0.50642267    -0.32770
C519        C  0.34790653  0.36883606  0.50604093     0.36480
C520        C  0.35486660  0.39969516  0.99895969    -0.05700
C521        C  0.38555504  0.40761129  0.99256060    -0.32670
C522        C  0.40887313  0.38544688  0.99301731     0.36380
H523        H  0.36488850  0.32346372  0.51223032     0.16750
O524        O  0.31865021  0.35992155  0.51374809    -0.60170
H525        H  0.39157376  0.43106321  0.98696238     0.16770
O526        O  0.43832721  0.39422200  0.98597352    -0.60270
H527        H  0.44701359  0.40215477  0.00551038     0.43760
H528        H  0.30987729  0.35104952  0.49465752     0.43720
C529        C  0.40004331  0.14573419  0.50200720    -0.05350
C530        C  0.40627397  0.11691627  0.51501073    -0.32770
C531        C  0.38392238  0.09368242  0.51522406     0.36480
C532        C  0.35470956  0.09907274  0.50229769    -0.05700
C533        C  0.34864355  0.12780391  0.98918309    -0.32670
C534        C  0.37088159  0.15094099  0.98894135     0.36380
H535        H  0.42839652  0.11249516  0.52547083     0.16750
O536        O  0.39043500  0.06634979  0.52932021    -0.60170
H537        H  0.32658734  0.13232230  0.97862215     0.16770
O538        O  0.36424146  0.17812848  0.97462618    -0.60270
H539        H  0.35219472  0.19008702  0.98984915     0.43760
H540        H  0.40202435  0.05428157  0.51383403     0.43720
C541        C  0.10037870  0.35356835  0.00141826    -0.05350
C542        C  0.12850214  0.34815828  0.51615142    -0.32770
C543        C  0.15148647  0.37057328  0.51680472     0.36480
C544        C  0.14669026  0.39916224  0.00249511    -0.05700
C545        C  0.11839632  0.40478532  0.98808722    -0.32670
C546        C  0.09534636  0.38231256  0.98746118     0.36380
H547        H  0.13266548  0.32648044  0.52752313     0.16750
O548        O  0.17811676  0.36466666  0.53252434    -0.60170
H549        H  0.11433227  0.42644901  0.97666299     0.16770
O550        O  0.06865181  0.38816895  0.97183261    -0.60270
H551        H  0.05572949  0.40006377  0.98636597     0.43760
H552        H  0.19072197  0.35200193  0.51837006     0.43720
C553        C  0.14546852  0.09816273  0.50006299    -0.05350
C554        C  0.15351527  0.12897092  0.50512013    -0.32770
C555        C  0.13145343  0.15216175  0.50508384     0.36480
C556        C  0.10015912  0.14506040  0.99998860    -0.05700
C557        C  0.09194291  0.11419490  0.99516150    -0.32670
C558        C  0.11415451  0.09088706  0.99527294     0.36380
H559        H  0.17719449  0.13537258  0.50934582     0.16750
O560        O  0.14087436  0.18162130  0.51102384    -0.60170
H561        H  0.06818417  0.10799122  0.99109335     0.16770
O562        O  0.10494854  0.06126244  0.98989301    -0.60270
H563        H  0.09836479  0.05330947  0.01021947     0.43760
H564        H  0.14843631  0.18959945  0.49104795     0.43720
C565        C  0.40158039  0.99830081  0.85632752    -0.05350
C566        C  0.39001601  0.47036136  0.86732129    -0.32770
C567        C  0.36702092  0.46997230  0.88989826     0.36480
C568        C  0.35523519  0.49774939  0.90133468    -0.05700
C569        C  0.36714565  0.02564760  0.89068969    -0.32670
C570        C  0.39033008  0.02604232  0.86833151     0.36380
H571        H  0.39863235  0.44889947  0.85817267     0.16750
O572        O  0.35574824  0.44244315  0.90017949    -0.60170
H573        H  0.35824558  0.04712437  0.89952971     0.16770
O574        O  0.40117527  0.05355913  0.85755141    -0.60270
H575        H  0.41449639  0.06171910  0.87413608     0.43760
H576        H  0.36840249  0.43729561  0.91838932     0.43720
C577        C  0.14585987  0.50147181  0.90091956    -0.05350
C578        C  0.15271767  0.01234263  0.87130130    -0.32770
C579        C  0.13045399  0.01273353  0.84817223     0.36480
C580        C  0.10039245  0.50209886  0.85425517    -0.05700
C581        C  0.09330499  0.49175343  0.88404268    -0.32670
C582        C  0.11561844  0.49144289  0.90724918     0.36380
H583        H  0.17552965  0.02076825  0.86592245     0.16750
O584        O  0.13819693  0.02450610  0.81996647    -0.60170
H585        H  0.07047942  0.48329660  0.88931822     0.16770
O586        O  0.10784668  0.48004552  0.93559343    -0.60270
H587        H  0.09815065  0.49742416  0.94667215     0.43760
H588        H  0.14900990  0.00766563  0.80909093     0.43720
C589        C  0.14628292  0.99677932  0.60052702    -0.05350
C590        C  0.11515547  0.99596032  0.59180910    -0.32770
C591        C  0.09160728  0.49573250  0.61388333     0.36480
C592        C  0.09885640  0.49611488  0.64555046    -0.05700
C593        C  0.12996783  0.49654047  0.65414139    -0.32850
C594        C  0.15340196  0.49705274  0.63223419     0.36380
H595        H  0.10886517  0.99560353  0.56772239     0.16750
O596        O  0.06169591  0.49470658  0.60408843    -0.60170
H597        H  0.13648556  0.49682058  0.67816787     0.16770
O598        O  0.18321597  0.49760768  0.64238776    -0.60270
H599        H  0.18791917  0.51956937  0.64609539     0.43760
H600        H  0.05631400  0.01625219  0.59930637     0.43720
C601        C  0.39985012  0.00402515  0.64694050    -0.05350
C602        C  0.40713712  0.49325654  0.61730485    -0.32770
C603        C  0.38519803  0.49312998  0.59379439     0.36480
C604        C  0.35512458  0.00369369  0.59968774    -0.05700
C605        C  0.34816920  0.01536131  0.62902764    -0.32670
C606        C  0.37011386  0.01564170  0.65245925     0.36380
H607        H  0.42978925  0.48421467  0.61240201     0.16750
O608        O  0.39307864  0.48122931  0.56564834    -0.60170
H609        H  0.32549982  0.02434393  0.63397096     0.16770
O610        O  0.36240296  0.02813776  0.68039818    -0.60270
H611        H  0.35089864  0.01181423  0.69135217     0.43760
H612        H  0.40315943  0.49833876  0.55450223     0.43720
C613        C  0.50265049  0.09849894  0.85579918    -0.05350
C614        C  0.01727990  0.12666900  0.85027547    -0.32770
C615        C  0.01790611  0.14963815  0.87274248     0.36480
C616        C  0.00354476  0.14483916  0.90144861    -0.05700
C617        C  0.48944669  0.11641895  0.90726010    -0.32670
C618        C  0.48901404  0.09332490  0.88480666     0.36380
H619        H  0.02852868  0.13090885  0.82844235     0.16750
O620        O  0.03358242  0.17629413  0.86674408    -0.60170
H621        H  0.47810315  0.11227225  0.92906108     0.16770
O622        O  0.47392565  0.06639044  0.89098852    -0.60270
H623        H  0.48881777  0.05379845  0.90265894     0.43760
H624        H  0.01949625  0.18873747  0.85395883     0.43720
C625        C  0.00073374  0.40018424  0.85560218    -0.05350
C626        C  0.00830441  0.36987112  0.84772272    -0.32770
C627        C  0.00849448  0.34661618  0.86973255     0.36480
C628        C  0.00098269  0.35322102  0.90065053    -0.05700
C629        C  0.49396946  0.38367145  0.90874899    -0.32670
C630        C  0.49393586  0.40703723  0.88665131     0.36380
H631        H  0.01432400  0.36398171  0.82426030     0.16750
O632        O  0.01705043  0.31768429  0.86076420    -0.60170
H633        H  0.48812573  0.38945429  0.93228159     0.16770
O634        O  0.48621499  0.43620490  0.89559646    -0.60270
H635        H  0.50553264  0.44537501  0.90348896     0.43760
H636        H  0.99832411  0.30839847  0.85167624     0.43720
C637        C  0.50052006  0.35435182  0.59992537    -0.05350
C638        C  0.48368646  0.34961579  0.62706553    -0.32770
C639        C  0.48266762  0.37201555  0.65007142     0.36480
C640        C  0.99876062  0.39982565  0.64630750    -0.05700
C641        C  0.01519181  0.40487683  0.61892220    -0.32670
C642        C  0.01614309  0.38241286  0.59580417     0.36380
H643        H  0.47095490  0.32849659  0.63038450     0.16750
O644        O  0.46483153  0.36699292  0.67561983    -0.60170
H645        H  0.02791158  0.42601998  0.61571193     0.16770
O646        O  0.03368149  0.38747322  0.57006226    -0.60270
H647        H  0.02057303  0.39987077  0.55623761     0.43760
H648        H  0.47730115  0.35360409  0.68910381     0.43720
C649        C  0.49492295  0.09869103  0.64635478    -0.05350
C650        C  0.49480043  0.12978593  0.65493192    -0.32770
C651        C  0.49504060  0.15310369  0.63298900     0.36480
C652        C  0.49525236  0.14586329  0.60128150    -0.05700
C653        C  0.49438169  0.11475213  0.59259216    -0.32670
C654        C  0.49424603  0.09133816  0.61467619     0.36380
H655        H  0.49492532  0.13636988  0.67896266     0.16750
O656        O  0.49495403  0.18292194  0.64309567    -0.60170
H657        H  0.49406722  0.10836150  0.56850993     0.16770
O658        O  0.49312498  0.06144408  0.60487486    -0.60270
H659        H  0.51463174  0.05609842  0.59962763     0.43760
H660        H  0.51682814  0.18805361  0.64690614     0.43720
O661        O  0.41373603  0.50295087  0.19981101    -0.75170
O662        O  0.45153484  0.50038757  0.16360510    -0.54080
C663        C  0.42320670  0.50248260  0.17172127     0.78560
O664        O  0.50230917  0.58487150  0.30303318    -0.59770
O665        O  0.50046482  0.54678299  0.33881410    -0.52800
C666        C  0.50171029  0.57515871  0.33100822     0.70570
O667        O  0.49650579  0.58432767  0.19896671    -0.74330
O668        O  0.99774655  0.54649306  0.16288623    -0.54890
C669        C  0.49635537  0.57486514  0.17086071     0.76570
O670        O  0.41421835  0.49839868  0.30377362    -0.59470
O671        O  0.45291625  0.99887503  0.33924845    -0.52590
C672        C  0.42444062  0.49842397  0.33153651     0.73170
Zr673      Zr  0.43513552  0.49970215  0.25162128     2.54710
O674        O  0.39666829  0.54007069  0.25384038    -0.80040
O675        O  0.39609910  0.95963311  0.25064754    -0.93460
Zr676      Zr  0.50012547  0.56371131  0.25097016     2.64680
O677        O  0.46124568  0.60375980  0.25222957    -0.98410
O678        O  0.04151699  0.60132811  0.24911325    -0.80470
O679        O  0.46705799  0.53196676  0.22157263    -0.83830
O680        O  0.46732859  0.53231184  0.28111988    -2.18540
O681        O  0.99927409  0.91423648  0.30298570    -0.67220
O682        O  0.50059192  0.95222635  0.33894311    -0.51790
C683        C  0.00007030  0.92382411  0.33103499     0.71550
O684        O  0.08446220  0.99604920  0.19812361    -0.60130
O685        O  0.04650982  0.49839628  0.16234506    -0.52110
C686        C  0.07494709  0.99674860  0.17010692     0.73350
O687        O  0.08583574  0.00104169  0.30166054    -0.71520
O688        O  0.04820654  0.00029589  0.33810033    -0.50200
C689        C  0.07658872  0.00117891  0.32979816     0.74730
O690        O  0.99874128  0.91365697  0.19896837    -0.66850
O691        O  0.99949969  0.95161445  0.16296596    -0.54050
C692        C  0.99899897  0.92324828  0.17096802     0.73120
Zr693      Zr  0.99898853  0.93504928  0.25089153     2.77540
O694        O  0.03807271  0.89518078  0.25035311    -0.97600
O695        O  0.45772730  0.89729480  0.25118445    -0.78420
Zr696      Zr  0.06392597  0.99932264  0.25012858     2.70070
O697        O  0.10479676  0.96138304  0.25187942    -0.79670
O698        O  0.10058054  0.54141370  0.24671461    -0.98750
Zr699      Zr  0.99923396  0.49915390  0.19188396     2.21500
Zr700      Zr  0.50020423  0.99941625  0.30985472     2.11130
O701        O  0.03245932  0.96657352  0.28016835    -2.47440
O702        O  0.03189127  0.96639160  0.22079689    -0.79460
O703        O  0.46681965  0.96688194  0.28118189    -0.71660
O704        O  0.03237247  0.53204626  0.22050718    -2.32620
O705        O  0.46622809  0.96674822  0.22131351    -2.28820
O706        O  0.03284938  0.53203303  0.28053455    -0.73420
H707        H  0.45494749  0.54490553  0.29457043     0.78580
H708        H  0.04486112  0.54443411  0.20697243     0.79670
H709        H  0.04521491  0.95407124  0.29324796     0.81890
H710        H  0.45343324  0.95431921  0.20809698     0.79500
H711        H  0.05271511  0.59685055  0.22979263     0.42530
H712        H  0.09673304  0.55392383  0.26534832     0.41500
H713        H  0.09488314  0.94210262  0.24502063     0.41180
H714        H  0.05170602  0.90017835  0.26786719     0.39110
H715        H  0.44149654  0.90663277  0.26411807     0.42250
H716        H  0.40085243  0.94726735  0.23213257     0.37030
H717        H  0.40534288  0.55679642  0.24112471     0.43150
H718        H  0.44808458  0.59867075  0.27009892     0.39560
H719        H  0.02706514  0.87637241  0.25682591     0.44480
H720        H  0.37684950  0.97049238  0.24544710     0.43200
H721        H  0.47251820  0.62246892  0.25857417     0.43340
H722        H  0.12080156  0.53175233  0.25038619     0.43700
O723        O  0.49707080  0.69836515  0.08644243    -0.75170
O724        O  0.99830495  0.66195435  0.04895140    -0.54080
C725        C  0.49688050  0.67025717  0.07733267     0.78560
O726        O  0.41562429  0.80195627  0.00011239    -0.59770
O727        O  0.45381645  0.83767780  0.00024351    -0.52800
C728        C  0.42533243  0.82991209  0.99998194     0.70570
O729        O  0.41454373  0.69815019  0.00228200    -0.74330
O730        O  0.45221000  0.66190208  0.00193687    -0.54890
C731        C  0.42383958  0.67012589  0.00215574     0.76570
O732        O  0.50061319  0.80187246  0.08633730    -0.59470
O733        O  0.50208750  0.83747009  0.04799807    -0.52590
C734        C  0.50133860  0.82971593  0.07650200     0.73170
Zr735      Zr  0.50088173  0.74996468  0.06524705     2.54710
O736        O  0.46264617  0.75150921  0.10610292    -0.80040
O737        O  0.04283411  0.74907649  0.10221558    -0.93460
Zr738      Zr  0.43607485  0.74984164  0.00128835     2.64680
O739        O  0.39749552  0.75049743  0.04191555    -0.98410
O740        O  0.39671652  0.74956142  0.46158634    -0.80470
O741        O  0.46780702  0.72014184  0.03387823    -0.83830
O742        O  0.46809077  0.77963626  0.03370943    -2.18540
O743        O  0.08641403  0.80104561  0.00179422    -0.67220
O744        O  0.04848736  0.83694455  0.99983016    -0.51790
C745        C  0.07686233  0.82898858  0.50089792     0.71550
O746        O  0.00297761  0.69735318  0.41536330    -0.60130
O747        O  0.00055183  0.66154341  0.45340617    -0.52110
C748        C  0.00239887  0.66945614  0.42497097     0.73350
O749        O  0.99969876  0.80071695  0.41511464    -0.71520
O750        O  0.50084564  0.83694716  0.45284015    -0.50200
C751        C  0.00044088  0.82875992  0.42441385     0.74730
O752        O  0.08553324  0.69749063  0.99886848    -0.66850
O753        O  0.04776786  0.66140782  0.00101251    -0.54050
C754        C  0.07622746  0.66948172  0.49987367     0.73120
Zr755      Zr  0.06480607  0.74927773  0.00049240     2.77540
O756        O  0.10426912  0.74967934  0.46072115    -0.97600
O757        O  0.10293892  0.74746620  0.04129608    -0.78420
Zr758      Zr  0.99997900  0.74905636  0.43647516     2.70070
O759        O  0.03861569  0.75067812  0.39600504    -0.79670
O760        O  0.45827319  0.74673068  0.39931270    -0.98750
Zr761      Zr  0.00010501  0.69038731  0.00114359     2.21500
Zr762      Zr  0.50089223  0.80835703  0.00049704     2.11130
O763        O  0.03325253  0.77880344  0.46764411    -2.47440
O764        O  0.03274268  0.71939027  0.46809610    -0.79460
O765        O  0.03362011  0.77954462  0.03330637    -0.71660
O766        O  0.46730436  0.71952066  0.46845388    -2.32620
O767        O  0.03322871  0.71966183  0.03359359    -2.28820
O768        O  0.46763387  0.77934309  0.46810994    -0.73420
H769        H  0.45565452  0.79301063  0.04631649     0.78580
H770        H  0.45467139  0.70624936  0.45591781     0.79670
H771        H  0.04587870  0.79183700  0.45486971     0.81890
H772        H  0.04573638  0.70642234  0.04617297     0.79500
H773        H  0.40395705  0.73439713  0.44624612     0.42530
H774        H  0.44457176  0.76390925  0.40507320     0.41500
H775        H  0.05670023  0.74033281  0.40501398     0.41180
H776        H  0.09945261  0.76771283  0.44782411     0.39110
H777        H  0.09562120  0.76252452  0.05670893     0.42250
H778        H  0.05290806  0.72897386  0.09911092     0.37030
H779        H  0.44433209  0.74144682  0.09710444     0.43150
H780        H  0.40275079  0.76854269  0.05473188     0.39560
H781        H  0.12336355  0.75542370  0.47167327     0.44480
H782        H  0.03253800  0.74728577  0.12245369     0.43200
H783        H  0.37822876  0.75632734  0.03138661     0.43340
H784        H  0.46777497  0.75322227  0.37966704     0.43700
O785        O  0.30222752  0.58483742  0.00191446    -0.75170
O786        O  0.33832441  0.54702456  0.00139182    -0.54080
C787        C  0.33025715  0.57536543  0.00202931     0.78560
O788        O  0.19892781  0.99763484  0.08583869    -0.59770
O789        O  0.16276558  0.49800788  0.04817939    -0.52800
C790        C  0.17085617  0.49748088  0.07662167     0.70570
O791        O  0.30256701  0.00230728  0.08580939    -0.74330
O792        O  0.33844889  0.00070613  0.04765814    -0.54890
C793        C  0.33055221  0.50216055  0.07611856     0.76570
O794        O  0.19818250  0.58413247  0.99966592    -0.59470
O795        O  0.16235735  0.54605687  0.00044508    -0.52590
C796        C  0.17014608  0.57450346  0.99997648     0.73170
Zr797      Zr  0.25033299  0.56349475  0.00031334     2.54710
O798        O  0.24910624  0.60246000  0.04044653    -0.80040
O799        O  0.25077031  0.60209738  0.45993732    -0.93460
Zr800      Zr  0.25076106  0.99923142  0.06473206     2.64680
O801        O  0.25023224  0.53846309  0.10465899    -0.98410
O802        O  0.25173334  0.95827364  0.10269943    -0.80470
O803        O  0.28029052  0.53200061  0.03288038    -0.83830
O804        O  0.22073652  0.53178728  0.03324549    -2.18540
O805        O  0.19859523  0.50106268  0.41471642    -0.67220
O806        O  0.16276610  0.49942835  0.45292875    -0.51790
C807        C  0.17059193  0.00057396  0.42443750     0.71550
O808        O  0.30244649  0.91423395  0.99757092    -0.60130
O809        O  0.33860801  0.95190957  0.99992831    -0.52110
C810        C  0.33048289  0.92353601  0.49867154     0.73350
O811        O  0.19918293  0.91343208  0.00229400    -0.71520
O812        O  0.16303195  0.95110450  0.00044133    -0.50200
C813        C  0.17116932  0.92279737  0.50180043     0.74730
O814        O  0.30266316  0.49754559  0.41422855    -0.66850
O815        O  0.33843951  0.99898662  0.45264270    -0.54050
C816        C  0.33050103  0.99797482  0.42423891     0.73120
Zr817      Zr  0.25066464  0.49933490  0.43567518     2.77540
O818        O  0.24965997  0.96012778  0.39573350    -0.97600
O819        O  0.25220388  0.54065147  0.39815583    -0.78420
Zr820      Zr  0.25077191  0.93510307  0.00036589     2.70070
O821        O  0.24854919  0.89400114  0.46248907    -0.79670
O822        O  0.25402986  0.89881178  0.04268014    -0.98750
Zr823      Zr  0.30961501  0.99941405  0.00016499     2.21500
Zr824      Zr  0.19160704  0.49887393  0.00043316     2.11130
O825        O  0.22098158  0.96640267  0.46742107    -2.47440
O826        O  0.28044729  0.96669413  0.46735738    -0.79460
O827        O  0.22059262  0.53169263  0.46760191    -0.71660
O828        O  0.28072907  0.96663736  0.03308265    -2.32620
O829        O  0.28043391  0.53209054  0.46743676    -2.28820
O830        O  0.22079002  0.96645981  0.03317581    -0.73420
H831        H  0.20746665  0.54427981  0.04591446     0.78580
H832        H  0.29411275  0.95417339  0.04555466     0.79670
H833        H  0.20776407  0.95372461  0.45487347     0.81890
H834        H  0.29372771  0.54467044  0.45487946     0.79500
H835        H  0.26906597  0.94498040  0.09644515     0.42530
H836        H  0.23590321  0.90334719  0.05568492     0.41500
H837        H  0.25482884  0.90384731  0.44296984     0.41180
H838        H  0.23199213  0.94682872  0.40107662     0.39110
H839        H  0.23806993  0.55636439  0.40652111     0.42250
H840        H  0.26937728  0.59760547  0.44761883     0.37030
H841        H  0.25891444  0.59255310  0.05837374     0.43150
H842        H  0.23125161  0.55034446  0.10094063     0.39560
H843        H  0.24306814  0.97112460  0.37698126     0.44480
H844        H  0.25562217  0.62151714  0.47074034     0.43200
H845        H  0.24611766  0.52707555  0.12390786     0.43340
H846        H  0.24940726  0.87866021  0.03321634     0.43700
C847        C  0.40172545  0.85453285  0.99976137    -0.05350
C848        C  0.37110159  0.84681530  0.00642264    -0.32770
C849        C  0.34790652  0.86883605  0.00604090     0.36480
C850        C  0.35486662  0.89969517  0.49895970    -0.05700
C851        C  0.38555505  0.90761130  0.49256059    -0.32670
C852        C  0.40887314  0.88544689  0.49301730     0.36380
H853        H  0.36488848  0.82346370  0.01223028     0.16750
O854        O  0.31865019  0.85992154  0.01374806    -0.60170
H855        H  0.39157377  0.93106322  0.48696235     0.16770
O856        O  0.43832722  0.89422201  0.48597349    -0.60270
H857        H  0.44701361  0.90215478  0.50551035     0.43760
H858        H  0.30987728  0.85104952  0.99465749     0.43720
C859        C  0.40004333  0.64573416  0.00200718    -0.05350
C860        C  0.40627398  0.61691625  0.01501071    -0.32770
C861        C  0.38392240  0.59368240  0.01522404     0.36480
C862        C  0.35470958  0.59907272  0.00229767    -0.05700
C863        C  0.34864354  0.62780393  0.48918312    -0.32670
C864        C  0.37088157  0.65094100  0.48894138     0.36380
H865        H  0.42839654  0.61249515  0.02547081     0.16750
O866        O  0.39043502  0.56634977  0.02932019    -0.60170
H867        H  0.32658732  0.63232231  0.47862219     0.16770
O868        O  0.36424144  0.67812850  0.47462623    -0.60270
H869        H  0.35219471  0.69008704  0.48984920     0.43760
H870        H  0.40202437  0.55428154  0.01383401     0.43720
C871        C  0.10037871  0.85356835  0.50141829    -0.05350
C872        C  0.12850212  0.84815830  0.01615139    -0.32770
C873        C  0.15148646  0.87057329  0.01680469     0.36480
C874        C  0.14669027  0.89916223  0.50249513    -0.05700
C875        C  0.11839632  0.90478532  0.48808727    -0.32670
C876        C  0.09534636  0.88231256  0.48746124     0.36380
H877        H  0.13266545  0.82648047  0.02752312     0.16750
O878        O  0.17811674  0.86466668  0.03252432    -0.60170
H879        H  0.11433227  0.92644902  0.47666305     0.16770
O880        O  0.06865180  0.88816897  0.47183269    -0.60270
H881        H  0.05572948  0.90006377  0.48636607     0.43760
H882        H  0.19072195  0.85200194  0.01837005     0.43720
C883        C  0.14546854  0.59816275  0.00006298    -0.05350
C884        C  0.15351529  0.62897094  0.00512010    -0.32770
C885        C  0.13145345  0.65216177  0.00508381     0.36480
C886        C  0.10015911  0.64506039  0.49998861    -0.05700
C887        C  0.09194290  0.61419490  0.49516151    -0.32670
C888        C  0.11415450  0.59088706  0.49527295     0.36380
H889        H  0.17719451  0.63537260  0.00934577     0.16750
O890        O  0.14087439  0.68162132  0.01102380    -0.60170
H891        H  0.06818416  0.60799122  0.49109335     0.16770
O892        O  0.10494853  0.56126243  0.48989302    -0.60270
H893        H  0.09836478  0.55330946  0.51021948     0.43760
H894        H  0.14843632  0.68959947  0.99104789     0.43720
C895        C  0.40158040  0.49830081  0.35632753    -0.05350
C896        C  0.39001597  0.97036135  0.36732125    -0.32770
C897        C  0.36702088  0.96997230  0.38989823     0.36480
C898        C  0.35523519  0.99774940  0.40133466    -0.05700
C899        C  0.36714567  0.52564760  0.39068972    -0.32670
C900        C  0.39033010  0.52604232  0.36833153     0.36380
H901        H  0.39863229  0.94889946  0.35817261     0.16750
O902        O  0.35574817  0.94244316  0.40017943    -0.60170
H903        H  0.35824562  0.54712437  0.39952974     0.16770
O904        O  0.40117531  0.55355912  0.35755144    -0.60270
H905        H  0.41449642  0.56171908  0.37413612     0.43760
H906        H  0.36840239  0.93729562  0.41838930     0.43720
C907        C  0.14585986  0.00147183  0.40091957    -0.05350
C908        C  0.15271769  0.51234258  0.37130129    -0.32770
C909        C  0.13045401  0.51273347  0.34817221     0.36480
C910        C  0.10039245  0.00209889  0.35425518    -0.05700
C911        C  0.09330499  0.99175346  0.38404270    -0.32670
C912        C  0.11561843  0.99144292  0.40724919     0.36380
H913        H  0.17552967  0.52076818  0.36592243     0.16750
O914        O  0.13819697  0.52450601  0.31996644    -0.60170
H915        H  0.07047941  0.98329664  0.38931823     0.16770
O916        O  0.10784667  0.98004556  0.43559344    -0.60270
H917        H  0.09815065  0.99742421  0.44667216     0.43760
H918        H  0.14900992  0.50766553  0.30909092     0.43720
C919        C  0.14628289  0.49677944  0.10052700    -0.05350
C920        C  0.11515545  0.49596051  0.09180908    -0.32770
C921        C  0.09160729  0.99573254  0.11388333     0.36480
C922        C  0.09885642  0.99611473  0.14555046    -0.05700
C923        C  0.12996785  0.99654009  0.15414139    -0.32850
C924        C  0.15340198  0.99705237  0.13223419     0.36380
H925        H  0.10886515  0.49560378  0.06772236     0.16750
O926        O  0.06169591  0.99470683  0.10408842    -0.60170
H927        H  0.13648559  0.99682002  0.17816787     0.16770
O928        O  0.18321600  0.99760707  0.14238775    -0.60270
H929        H  0.18791931  0.01956870  0.14609556     0.43760
H930        H  0.05631406  0.51625244  0.09930624     0.43720
C931        C  0.39985010  0.50402515  0.14694051    -0.05350
C932        C  0.40713714  0.99325657  0.11730483    -0.32770
C933        C  0.38519804  0.99313000  0.09379437     0.36480
C934        C  0.35512456  0.50369370  0.09968776    -0.05700
C935        C  0.34816918  0.51536131  0.12902766    -0.32670
C936        C  0.37011384  0.51564169  0.15245927     0.36380
H937        H  0.42978926  0.98421470  0.11240199     0.16750
O938        O  0.39307866  0.98122933  0.06564832    -0.60170
H939        H  0.32549979  0.52434392  0.13397098     0.16770
O940        O  0.36240293  0.52813774  0.18039820    -0.60270
H941        H  0.35089862  0.51181421  0.19135218     0.43760
H942        H  0.40315944  0.99833878  0.05450221     0.43720
C943        C  0.50265048  0.59849894  0.35579918    -0.05350
C944        C  0.01727991  0.62666900  0.35027547    -0.32770
C945        C  0.01790612  0.64963815  0.37274248     0.36480
C946        C  0.00354477  0.64483917  0.40144860    -0.05700
C947        C  0.48944669  0.61641895  0.40726010    -0.32670
C948        C  0.48901404  0.59332490  0.38480667     0.36380
H949        H  0.02852869  0.63090885  0.32844234     0.16750
O950        O  0.03358242  0.67629413  0.36674407    -0.60170
H951        H  0.47810316  0.61227224  0.42906109     0.16770
O952        O  0.47392568  0.56639042  0.39098853    -0.60270
H953        H  0.48881781  0.55379845  0.40265895     0.43760
H954        H  0.01949626  0.68873747  0.35395883     0.43720
C955        C  0.00073378  0.90018425  0.35560219    -0.05350
C956        C  0.00830445  0.86987113  0.34772273    -0.32770
C957        C  0.00849451  0.84661618  0.36973256     0.36480
C958        C  0.00098272  0.85322102  0.40065054    -0.05700
C959        C  0.49396950  0.88367146  0.40874900    -0.32670
C960        C  0.49393591  0.90703724  0.38665132     0.36380
H961        H  0.01432403  0.86398172  0.32426031     0.16750
O962        O  0.01705046  0.81768430  0.36076421    -0.60170
H963        H  0.48812577  0.88945430  0.43228160     0.16770
O964        O  0.48621504  0.93620491  0.39559647    -0.60270
H965        H  0.50553269  0.94537502  0.40348896     0.43760
H966        H  0.99832414  0.80839847  0.35167624     0.43720
C967        C  0.50052005  0.85435182  0.09992537    -0.05350
C968        C  0.48368645  0.84961578  0.12706553    -0.32770
C969        C  0.48266762  0.87201554  0.15007143     0.36480
C970        C  0.99876060  0.89982564  0.14630751    -0.05700
C971        C  0.01519176  0.90487683  0.11892218    -0.32670
C972        C  0.01614303  0.88241287  0.09580415     0.36380
H973        H  0.47095490  0.82849658  0.13038450     0.16750
O974        O  0.46483154  0.86699290  0.17561984    -0.60170
H975        H  0.02791150  0.92602000  0.11571190     0.16770
O976        O  0.03368139  0.88747325  0.07006222    -0.60270
H977        H  0.02057290  0.89987079  0.05623759     0.43760
H978        H  0.47730117  0.85360407  0.18910382     0.43720
C979        C  0.49492303  0.59869103  0.14635478    -0.05350
C980        C  0.49480037  0.62978593  0.15493191    -0.32770
C981        C  0.49504055  0.65310369  0.13298900     0.36480
C982        C  0.49525243  0.64586329  0.10128150    -0.05700
C983        C  0.49438190  0.61475213  0.09259215    -0.32670
C984        C  0.49424625  0.59133815  0.11467618     0.36380
H985        H  0.49492515  0.63636988  0.17896266     0.16750
O986        O  0.49495383  0.68292194  0.14309567    -0.60170
H987        H  0.49406755  0.60836149  0.06850993     0.16770
O988        O  0.49312536  0.56144408  0.10487485    -0.60270
H989        H  0.51463216  0.55609852  0.09962768     0.43760
H990        H  0.51682791  0.68805368  0.14690623     0.43720
O991        O  0.41373604  0.50295091  0.69981099    -0.75170
O992        O  0.45153486  0.50038759  0.66360508    -0.54080
C993        C  0.42320672  0.50248264  0.67172125     0.78560
O994        O  0.50230919  0.58487150  0.80303318    -0.59770
O995        O  0.50046482  0.54678299  0.83881410    -0.52800
C996        C  0.50171030  0.57515872  0.83100822     0.70570
O997        O  0.49650575  0.58432769  0.69896672    -0.74330
O998        O  0.99774654  0.54649307  0.66288623    -0.54890
C999        C  0.49635532  0.57486516  0.67086072     0.76570
O1000       O  0.41421835  0.49839869  0.80377360    -0.59470
O1001       O  0.45291627  0.99887501  0.83924847    -0.52590
C1002       C  0.42444062  0.49842399  0.83153649     0.73170
Zr1003     Zr  0.43513552  0.49970219  0.75162127     2.54710
O1004       O  0.39666833  0.54007077  0.75384037    -0.80040
O1005       O  0.39609911  0.95963310  0.75064760    -0.93460
Zr1006     Zr  0.50012550  0.56371132  0.75097016     2.64680
O1007       O  0.46124580  0.60375991  0.75222960    -0.98410
O1008       O  0.04151696  0.60132813  0.74911325    -0.80470
O1009       O  0.46705801  0.53196679  0.72157262    -0.83830
O1010       O  0.46732860  0.53231187  0.78111988    -2.18540
O1011       O  0.99927403  0.91423648  0.80298570    -0.67220
O1012       O  0.50059193  0.95222635  0.83894312    -0.51790
C1013       C  0.00007024  0.92382410  0.83103498     0.71550
O1014       O  0.08446220  0.99604923  0.69812362    -0.60130
O1015       O  0.04650983  0.49839631  0.66234506    -0.52110
C1016       C  0.07494709  0.99674862  0.67010693     0.73350
O1017       O  0.08583571  0.00104167  0.80166057    -0.71520
O1018       O  0.04820650  0.00029588  0.83810035    -0.50200
C1019       C  0.07658868  0.00117890  0.82979819     0.74730
O1020       O  0.99874126  0.91365698  0.69896837    -0.66850
O1021       O  0.99949968  0.95161446  0.66296595    -0.54050
C1022       C  0.99899896  0.92324830  0.67096801     0.73120
Zr1023     Zr  0.99898849  0.93504928  0.75089152     2.77540
O1024       O  0.03807268  0.89518080  0.75035312    -0.97600
O1025       O  0.45772731  0.89729480  0.75118447    -0.78420
Zr1026     Zr  0.06392596  0.99932262  0.75012860     2.70070
O1027       O  0.10479665  0.96138291  0.75187941    -0.79670
O1028       O  0.10058044  0.54141382  0.74671455    -0.98750
Zr1029     Zr  0.99923397  0.49915390  0.69188396     2.21500
Zr1030     Zr  0.50020424  0.99941625  0.80985473     2.11130
O1031       O  0.03245929  0.96657351  0.78016835    -2.47440
O1032       O  0.03189124  0.96639160  0.72079690    -0.79460
O1033       O  0.46681966  0.96688193  0.78118191    -0.71660
O1034       O  0.03237247  0.53204628  0.72050718    -2.32620
O1035       O  0.46622810  0.96674821  0.72131353    -2.28820
O1036       O  0.03284938  0.53203305  0.78053456    -0.73420
H1037       H  0.45494751  0.54490556  0.79457042     0.78580
H1038       H  0.04486111  0.54443414  0.70697243     0.79670
H1039       H  0.04521487  0.95407123  0.79324798     0.81890
H1040       H  0.45343325  0.95431920  0.70809699     0.79500
H1041       H  0.05271507  0.59685058  0.72979262     0.42530
H1042       H  0.09673301  0.55392389  0.76534833     0.41500
H1043       H  0.09488304  0.94210258  0.74502037     0.41180
H1044       H  0.05170598  0.90017836  0.76786722     0.39110
H1045       H  0.44149655  0.90663276  0.76411810     0.42250
H1046       H  0.40085243  0.94726732  0.73213263     0.37030
H1047       H  0.40534294  0.55679649  0.74112470     0.43150
H1048       H  0.44808467  0.59867085  0.77009892     0.39560
H1049       H  0.02706511  0.87637242  0.75682589     0.44480
H1050       H  0.37684951  0.97049236  0.74544716     0.43200
H1051       H  0.47251836  0.62246899  0.75857425     0.43340
H1052       H  0.12080150  0.53175248  0.75038600     0.43700
O1053       O  0.49707077  0.69836516  0.58644243    -0.75170
O1054       O  0.99830494  0.66195436  0.54895139    -0.54080
C1055       C  0.49688046  0.67025718  0.57733267     0.78560
O1056       O  0.41562431  0.80195629  0.50011238    -0.59770
O1057       O  0.45381648  0.83767781  0.50024351    -0.52800
C1058       C  0.42533246  0.82991211  0.49998193     0.70570
O1059       O  0.41454373  0.69815021  0.50228199    -0.74330
O1060       O  0.45220998  0.66190209  0.50193686    -0.54890
C1061       C  0.42383957  0.67012590  0.50215574     0.76570
O1062       O  0.50061317  0.80187246  0.58633730    -0.59470
O1063       O  0.50208751  0.83747009  0.54799807    -0.52590
C1064       C  0.50133860  0.82971593  0.57650200     0.73170
Zr1065     Zr  0.50088173  0.74996468  0.56524705     2.54710
O1066       O  0.46264617  0.75150920  0.60610292    -0.80040
O1067       O  0.04283415  0.74907648  0.60221556    -0.93460
Zr1068     Zr  0.43607486  0.74984165  0.50128834     2.64680
O1069       O  0.39749552  0.75049745  0.54191552    -0.98410
O1070       O  0.39671649  0.74956139  0.96158638    -0.80470
O1071       O  0.46780701  0.72014184  0.53387822    -0.83830
O1072       O  0.46809078  0.77963627  0.53370942    -2.18540
O1073       O  0.08641402  0.80104561  0.50179422    -0.67220
O1074       O  0.04848735  0.83694456  0.49983017    -0.51790
C1075       C  0.07686233  0.82898857  0.00089792     0.71550
O1076       O  0.00297766  0.69735317  0.91536331    -0.60130
O1077       O  0.00055188  0.66154340  0.95340618    -0.52110
C1078       C  0.00239892  0.66945613  0.92497098     0.73350
O1079       O  0.99969879  0.80071694  0.91511463    -0.71520
O1080       O  0.50084559  0.83694716  0.95284015    -0.50200
C1081       C  0.00044089  0.82875991  0.92441384     0.74730
O1082       O  0.08553323  0.69749063  0.49886845    -0.66850
O1083       O  0.04776785  0.66140782  0.50101249    -0.54050
C1084       C  0.07622748  0.66948171  0.99987370     0.73120
Zr1085     Zr  0.06480606  0.74927773  0.50049238     2.77540
O1086       O  0.10426916  0.74967932  0.96072120    -0.97600
O1087       O  0.10293894  0.74746618  0.54129603    -0.78420
Zr1088     Zr  0.99997904  0.74905635  0.93647515     2.70070
O1089       O  0.03861573  0.75067811  0.89600503    -0.79670
O1090       O  0.45827318  0.74673066  0.89931268    -0.98750
Zr1091     Zr  0.00010499  0.69038732  0.50114359     2.21500
Zr1092     Zr  0.50089225  0.80835703  0.50049704     2.11130
O1093       O  0.03325255  0.77880343  0.96764411    -2.47440
O1094       O  0.03274270  0.71939026  0.96809612    -0.79460
O1095       O  0.03362011  0.77954463  0.53330636    -0.71660
O1096       O  0.46730435  0.71952065  0.96845389    -2.32620
O1097       O  0.03322870  0.71966183  0.53359357    -2.28820
O1098       O  0.46763385  0.77934309  0.96810995    -0.73420
H1099       H  0.45565452  0.79301064  0.54631648     0.78580
H1100       H  0.45467138  0.70624936  0.95591782     0.79670
H1101       H  0.04587872  0.79183699  0.95486972     0.81890
H1102       H  0.04573638  0.70642234  0.54617295     0.79500
H1103       H  0.40395705  0.73439715  0.94624612     0.42530
H1104       H  0.44457173  0.76390921  0.90507319     0.41500
H1105       H  0.05670027  0.74033279  0.90501398     0.41180
H1106       H  0.09945265  0.76771279  0.94782413     0.39110
H1107       H  0.09562122  0.76252449  0.55670889     0.42250
H1108       H  0.05290813  0.72897388  0.59911084     0.37030
H1109       H  0.44433212  0.74144675  0.59710447     0.43150
H1110       H  0.40275081  0.76854268  0.55473188     0.39560
H1111       H  0.12336357  0.75542370  0.97167333     0.44480
H1112       H  0.03253805  0.74728570  0.62245367     0.43200
H1113       H  0.37822876  0.75632740  0.53138657     0.43340
H1114       H  0.46777496  0.75322225  0.87966703     0.43700
O1115       O  0.30222750  0.58483744  0.50191448    -0.75170
O1116       O  0.33832439  0.54702458  0.50139183    -0.54080
C1117       C  0.33025713  0.57536546  0.50202933     0.78560
O1118       O  0.19892781  0.99763481  0.58583868    -0.59770
O1119       O  0.16276558  0.49800791  0.54817942    -0.52800
C1120       C  0.17085618  0.49748090  0.57662169     0.70570
O1121       O  0.30256700  0.00230725  0.58580939    -0.74330
O1122       O  0.33844889  0.00070612  0.54765815    -0.54890
C1123       C  0.33055222  0.50216055  0.57611855     0.76570
O1124       O  0.19818248  0.58413247  0.49966595    -0.59470
O1125       O  0.16235733  0.54605686  0.50044510    -0.52590
C1126       C  0.17014606  0.57450346  0.49997650     0.73170
Zr1127     Zr  0.25033297  0.56349475  0.50031336     2.54710
O1128       O  0.24910621  0.60246000  0.54044656    -0.80040
O1129       O  0.25077035  0.60209737  0.95993730    -0.93460
Zr1130     Zr  0.25076106  0.99923142  0.56473206     2.64680
O1131       O  0.25023225  0.53846314  0.60465896    -0.98410
O1132       O  0.25173336  0.95827367  0.60269946    -0.80470
O1133       O  0.28029051  0.53200062  0.53288039    -0.83830
O1134       O  0.22073651  0.53178728  0.53324552    -2.18540
O1135       O  0.19859526  0.50106267  0.91471638    -0.67220
O1136       O  0.16276613  0.49942836  0.95292872    -0.51790
C1137       C  0.17059189  0.00057396  0.92443752     0.71550
O1138       O  0.30244651  0.91423396  0.49757093    -0.60130
O1139       O  0.33860803  0.95190958  0.49992831    -0.52110
C1140       C  0.33048287  0.92353600  0.99867154     0.73350
O1141       O  0.19918294  0.91343207  0.50229400    -0.71520
O1142       O  0.16303196  0.95110449  0.50044132    -0.50200
C1143       C  0.17116931  0.92279738  0.00180043     0.74730
O1144       O  0.30266319  0.49754555  0.91422855    -0.66850
O1145       O  0.33843949  0.99898660  0.95264269    -0.54050
C1146       C  0.33050101  0.99797483  0.92423891     0.73120
Zr1147     Zr  0.25066467  0.49933488  0.93567516     2.77540
O1148       O  0.24965994  0.96012777  0.89573352    -0.97600
O1149       O  0.25220393  0.54065145  0.89815581    -0.78420
Zr1150     Zr  0.25077192  0.93510306  0.50036588     2.70070
O1151       O  0.24854917  0.89400115  0.96248908    -0.79670
O1152       O  0.25402988  0.89881177  0.54268012    -0.98750
Zr1153     Zr  0.30961502  0.99941405  0.50016500     2.21500
Zr1154     Zr  0.19160703  0.49887393  0.50043318     2.11130
O1155       O  0.22098156  0.96640268  0.96742108    -2.47440
O1156       O  0.28044727  0.96669414  0.96735738    -0.79460
O1157       O  0.22059264  0.53169262  0.96760188    -0.71660
O1158       O  0.28072908  0.96663736  0.53308265    -2.32620
O1159       O  0.28043393  0.53209053  0.96743674    -2.28820
O1160       O  0.22079003  0.96645980  0.53317580    -0.73420
H1161       H  0.20746664  0.54427981  0.54591449     0.78580
H1162       H  0.29411275  0.95417339  0.54555466     0.79670
H1163       H  0.20776405  0.95372462  0.95487348     0.81890
H1164       H  0.29372773  0.54467042  0.95487945     0.79500
H1165       H  0.26906592  0.94498037  0.59644513     0.42530
H1166       H  0.23590323  0.90334719  0.55568492     0.41500
H1167       H  0.25482881  0.90384732  0.94296985     0.41180
H1168       H  0.23199210  0.94682872  0.90107664     0.39110
H1169       H  0.23807000  0.55636438  0.90652109     0.42250
H1170       H  0.26937730  0.59760545  0.94761880     0.37030
H1171       H  0.25891444  0.59255311  0.55837376     0.43150
H1172       H  0.23125160  0.55034449  0.60094060     0.39560
H1173       H  0.24306812  0.97112458  0.87698127     0.44480
H1174       H  0.25562223  0.62151713  0.97074032     0.43200
H1175       H  0.24611769  0.52707561  0.62390785     0.43340
H1176       H  0.24940726  0.87866020  0.53321633     0.43700
C1177       C  0.40172547  0.85453287  0.49976137    -0.05350
C1178       C  0.37110163  0.84681532  0.50642267    -0.32770
C1179       C  0.34790655  0.86883607  0.50604093     0.36480
C1180       C  0.35486660  0.89969516  0.99895970    -0.05700
C1181       C  0.38555503  0.90761129  0.99256061    -0.32670
C1182       C  0.40887312  0.88544687  0.99301732     0.36380
H1183       H  0.36488852  0.82346372  0.51223033     0.16750
O1184       O  0.31865023  0.85992155  0.51374812    -0.60170
H1185       H  0.39157376  0.93106321  0.98696239     0.16770
O1186       O  0.43832720  0.89422200  0.98597354    -0.60270
H1187       H  0.44701358  0.90215476  0.00551040     0.43760
H1188       H  0.30987730  0.85104952  0.49465755     0.43720
C1189       C  0.40004331  0.64573419  0.50200719    -0.05350
C1190       C  0.40627397  0.61691627  0.51501072    -0.32770
C1191       C  0.38392238  0.59368242  0.51522405     0.36480
C1192       C  0.35470956  0.59907275  0.50229769    -0.05700
C1193       C  0.34864356  0.62780390  0.98918309    -0.32670
C1194       C  0.37088160  0.65094097  0.98894135     0.36380
H1195       H  0.42839653  0.61249516  0.52547080     0.16750
O1196       O  0.39043500  0.56634979  0.52932020    -0.60170
H1197       H  0.32658736  0.63232228  0.97862215     0.16770
O1198       O  0.36424147  0.67812847  0.97462619    -0.60270
H1199       H  0.35219473  0.69008701  0.98984915     0.43760
H1200       H  0.40202435  0.55428156  0.51383401     0.43720
C1201       C  0.10037871  0.85356835  0.00141827    -0.05350
C1202       C  0.12850213  0.84815829  0.51615139    -0.32770
C1203       C  0.15148646  0.87057328  0.51680468     0.36480
C1204       C  0.14669027  0.89916223  0.00249513    -0.05700
C1205       C  0.11839633  0.90478531  0.98808724    -0.32670
C1206       C  0.09534637  0.88231255  0.98746120     0.36380
H1207       H  0.13266546  0.82648046  0.52752310     0.16750
O1208       O  0.17811675  0.86466666  0.53252430    -0.60170
H1209       H  0.11433228  0.92644900  0.97666301     0.16770
O1210       O  0.06865182  0.88816893  0.97183262    -0.60270
H1211       H  0.05572950  0.90006376  0.98636598     0.43760
H1212       H  0.19072195  0.85200192  0.51837001     0.43720
C1213       C  0.14546852  0.59816275  0.50006299    -0.05350
C1214       C  0.15351526  0.62897094  0.50512011    -0.32770
C1215       C  0.13145343  0.65216177  0.50508381     0.36480
C1216       C  0.10015913  0.64506039  0.99998862    -0.05700
C1217       C  0.09194292  0.61419490  0.99516153    -0.32670
C1218       C  0.11415452  0.59088706  0.99527295     0.36380
H1219       H  0.17719448  0.63537260  0.50934580     0.16750
O1220       O  0.14087437  0.68162132  0.51102380    -0.60170
H1221       H  0.06818418  0.60799122  0.99109338     0.16770
O1222       O  0.10494855  0.56126243  0.98989303    -0.60270
H1223       H  0.09836481  0.55330946  0.01021949     0.43760
H1224       H  0.14843630  0.68959946  0.49104789     0.43720
C1225       C  0.40158039  0.49830081  0.85632752    -0.05350
C1226       C  0.39001605  0.97036136  0.86732135    -0.32770
C1227       C  0.36702095  0.96997231  0.88989831     0.36480
C1228       C  0.35523517  0.99774941  0.90133466    -0.05700
C1229       C  0.36714572  0.52564758  0.89068976    -0.32670
C1230       C  0.39033013  0.52604231  0.86833156     0.36380
H1231       H  0.39863244  0.94889947  0.85817277     0.16750
O1232       O  0.35574831  0.94244317  0.90017958    -0.60170
H1233       H  0.35824568  0.54712435  0.89952982     0.16770
O1234       O  0.40117535  0.55355912  0.85755150    -0.60270
H1235       H  0.41449638  0.56171912  0.87413623     0.43760
H1236       H  0.36840258  0.93729567  0.91838942     0.43720
C1237       C  0.14585983  0.00147183  0.90091960    -0.05350
C1238       C  0.15271773  0.51234258  0.87130126    -0.32770
C1239       C  0.13045404  0.51273347  0.84817219     0.36480
C1240       C  0.10039241  0.00209888  0.85425521    -0.05700
C1241       C  0.09330495  0.99175343  0.88404272    -0.32670
C1242       C  0.11561841  0.99144289  0.90724921     0.36380
H1243       H  0.17552971  0.52076817  0.86592240     0.16750
O1244       O  0.13819700  0.52450601  0.81996641    -0.60170
H1245       H  0.07047939  0.98329658  0.88931825     0.16770
O1246       O  0.10784665  0.98004550  0.93559345    -0.60270
H1247       H  0.09815062  0.99742413  0.94667219     0.43760
H1248       H  0.14900994  0.50766553  0.80909089     0.43720
C1249       C  0.14628291  0.49677949  0.60052702    -0.05350
C1250       C  0.11515546  0.49596037  0.59180910    -0.32770
C1251       C  0.09160729  0.99573247  0.61388333     0.36480
C1252       C  0.09885642  0.99611474  0.64555047    -0.05700
C1253       C  0.12996785  0.99654016  0.65414139    -0.32850
C1254       C  0.15340198  0.99705242  0.63223419     0.36380
H1255       H  0.10886517  0.49560347  0.56772239     0.16750
O1256       O  0.06169591  0.99470668  0.60408843    -0.60170
H1257       H  0.13648559  0.99682016  0.67816787     0.16770
O1258       O  0.18321599  0.99760718  0.64238775    -0.60270
H1259       H  0.18791928  0.01956883  0.64609550     0.43760
H1260       H  0.05631394  0.51625205  0.59930624     0.43720
C1261       C  0.39985011  0.50402518  0.64694049    -0.05350
C1262       C  0.40713713  0.99325652  0.61730486    -0.32770
C1263       C  0.38519804  0.99312996  0.59379439     0.36480
C1264       C  0.35512457  0.50369371  0.59968774    -0.05700
C1265       C  0.34816920  0.51536133  0.62902764    -0.32670
C1266       C  0.37011386  0.51564172  0.65245925     0.36380
H1267       H  0.42978925  0.98421465  0.61240202     0.16750
O1268       O  0.39307865  0.98122930  0.56564834    -0.60170
H1269       H  0.32549981  0.52434395  0.63397096     0.16770
O1270       O  0.36240295  0.52813779  0.68039818    -0.60270
H1271       H  0.35089864  0.51181426  0.69135217     0.43760
H1272       H  0.40315944  0.99833875  0.55450223     0.43720
C1273       C  0.50265049  0.59849894  0.85579918    -0.05350
C1274       C  0.01727994  0.62666900  0.85027547    -0.32770
C1275       C  0.01790616  0.64963814  0.87274248     0.36480
C1276       C  0.00354482  0.64483915  0.90144861    -0.05700
C1277       C  0.48944666  0.61641896  0.90726009    -0.32670
C1278       C  0.48901401  0.59332491  0.88480666     0.36380
H1279       H  0.02852871  0.63090885  0.82844234     0.16750
O1280       O  0.03358246  0.67629412  0.86674407    -0.60170
H1281       H  0.47810310  0.61227227  0.92906107     0.16770
O1282       O  0.47392562  0.56639045  0.89098851    -0.60270
H1283       H  0.48881773  0.55379846  0.90265894     0.43760
H1284       H  0.01949629  0.68873746  0.85395883     0.43720
C1285       C  0.00073372  0.90018424  0.85560218    -0.05350
C1286       C  0.00830439  0.86987112  0.84772271    -0.32770
C1287       C  0.00849447  0.84661617  0.86973254     0.36480
C1288       C  0.00098271  0.85322101  0.90065053    -0.05700
C1289       C  0.49396946  0.88367146  0.90874900    -0.32670
C1290       C  0.49393588  0.90703724  0.88665132     0.36380
H1291       H  0.01432395  0.86398171  0.82426029     0.16750
O1292       O  0.01705041  0.81768429  0.86076418    -0.60170
H1293       H  0.48812573  0.88945430  0.93228160     0.16770
O1294       O  0.48621503  0.93620492  0.89559647    -0.60270
H1295       H  0.50553269  0.94537501  0.90348897     0.43760
H1296       H  0.99832409  0.80839846  0.85167624     0.43720
C1297       C  0.50052004  0.85435182  0.59992537    -0.05350
C1298       C  0.48368645  0.84961578  0.62706554    -0.32770
C1299       C  0.48266762  0.87201553  0.65007144     0.36480
C1300       C  0.99876060  0.89982565  0.64630750    -0.05700
C1301       C  0.01519177  0.90487684  0.61892219    -0.32670
C1302       C  0.01614305  0.88241288  0.59580415     0.36380
H1303       H  0.47095490  0.82849657  0.63038451     0.16750
O1304       O  0.46483155  0.86699289  0.67561985    -0.60170
H1305       H  0.02791152  0.92602001  0.61571190     0.16770
O1306       O  0.03368142  0.88747326  0.57006223    -0.60270
H1307       H  0.02057294  0.89987079  0.55623759     0.43760
H1308       H  0.47730118  0.85360406  0.68910383     0.43720
C1309       C  0.49492296  0.59869104  0.64635479    -0.05350
C1310       C  0.49480030  0.62978595  0.65493192    -0.32770
C1311       C  0.49504048  0.65310370  0.63298900     0.36480
C1312       C  0.49525237  0.64586330  0.60128151    -0.05700
C1313       C  0.49438183  0.61475214  0.59259216    -0.32670
C1314       C  0.49424617  0.59133817  0.61467619     0.36380
H1315       H  0.49492508  0.63636990  0.67896266     0.16750
O1316       O  0.49495377  0.68292196  0.64309567    -0.60170
H1317       H  0.49406747  0.60836150  0.56850994     0.16770
O1318       O  0.49312529  0.56144409  0.60487486    -0.60270
H1319       H  0.51463211  0.55609849  0.59962781     0.43760
H1320       H  0.51682785  0.68805369  0.64690623     0.43720
O1321       O  0.91373606  0.00295091  0.19981099    -0.75170
O1322       O  0.95153487  0.00038758  0.16360509    -0.54080
C1323       C  0.92320673  0.00248263  0.17172126     0.78560
O1324       O  0.00230920  0.08487150  0.30303317    -0.59770
O1325       O  0.00046484  0.04678299  0.33881409    -0.52800
C1326       C  0.00171032  0.07515872  0.33100821     0.70570
O1327       O  0.99650575  0.08432766  0.19896670    -0.74330
O1328       O  0.49774654  0.04649308  0.16288622    -0.54890
C1329       C  0.99635533  0.07486514  0.17086070     0.76570
O1330       O  0.91421837  0.99839869  0.30377360    -0.59470
O1331       O  0.95291626  0.49887502  0.33924847    -0.52590
C1332       C  0.92444064  0.99842398  0.33153650     0.73170
Zr1333     Zr  0.93513554  0.99970216  0.25162127     2.54710
O1334       O  0.89666830  0.04007071  0.25384037    -0.80040
O1335       O  0.89609908  0.45963312  0.25064760    -0.93460
Zr1336     Zr  0.00012550  0.06371131  0.25097015     2.64680
O1337       O  0.96124575  0.10375985  0.25222959    -0.98410
O1338       O  0.54151705  0.10132805  0.24911321    -0.80470
O1339       O  0.96705802  0.03196676  0.22157262    -0.83830
O1340       O  0.96732861  0.03231185  0.28111987    -2.18540
O1341       O  0.49927408  0.41423647  0.30298571    -0.67220
O1342       O  0.00059191  0.45222635  0.33894311    -0.51790
C1343       C  0.50007028  0.42382410  0.33103499     0.71550
O1344       O  0.58446217  0.49604929  0.19812359    -0.60130
O1345       O  0.54650985  0.99839624  0.16234507    -0.52110
C1346       C  0.57494706  0.49674868  0.17010690     0.73350
O1347       O  0.58583573  0.50104168  0.30166054    -0.71520
O1348       O  0.54820653  0.50029588  0.33810034    -0.50200
C1349       C  0.57658871  0.50117890  0.32979817     0.74730
O1350       O  0.49874127  0.41365697  0.19896838    -0.66850
O1351       O  0.49949968  0.45161445  0.16296596    -0.54050
C1352       C  0.49899896  0.42324828  0.17096802     0.73120
Zr1353     Zr  0.49898852  0.43504927  0.25089153     2.77540
O1354       O  0.53807271  0.39518079  0.25035312    -0.97600
O1355       O  0.95772728  0.39729479  0.25118446    -0.78420
Zr1356     Zr  0.56392596  0.49932264  0.25012858     2.70070
O1357       O  0.60479669  0.46138297  0.25187936    -0.79670
O1358       O  0.60058048  0.04141378  0.24671456    -0.98750
Zr1359     Zr  0.49923398  0.99915391  0.19188395     2.21500
Zr1360     Zr  0.00020423  0.49941624  0.30985473     2.11130
O1361       O  0.53245931  0.46657351  0.28016835    -2.47440
O1362       O  0.53189125  0.46639160  0.22079689    -0.79460
O1363       O  0.96681964  0.46688193  0.28118190    -0.71660
O1364       O  0.53237249  0.03204627  0.22050717    -2.32620
O1365       O  0.96622807  0.46674821  0.22131353    -2.28820
O1366       O  0.53284939  0.03203304  0.28053456    -0.73420
H1367       H  0.95494752  0.04490554  0.29457042     0.78580
H1368       H  0.54486113  0.04443413  0.20697242     0.79670
H1369       H  0.54521490  0.45407124  0.29324797     0.81890
H1370       H  0.95343322  0.45431921  0.20809699     0.79500
H1371       H  0.55271492  0.09685072  0.22979238     0.42530
H1372       H  0.59673301  0.05392388  0.26534830     0.41500
H1373       H  0.59488306  0.44210260  0.24502043     0.41180
H1374       H  0.55170602  0.40017836  0.26786721     0.39110
H1375       H  0.94149652  0.40663276  0.26411807     0.42250
H1376       H  0.90085241  0.44726734  0.23213265     0.37030
H1377       H  0.90534292  0.05679645  0.24112475     0.43150
H1378       H  0.94808465  0.09867080  0.27009893     0.39560
H1379       H  0.52706514  0.37637242  0.25682591     0.44480
H1380       H  0.87684949  0.47049239  0.24544713     0.43200
H1381       H  0.97251830  0.12246895  0.25857420     0.43340
H1382       H  0.62080152  0.03175243  0.25038607     0.43700
O1383       O  0.99707075  0.19836515  0.08644243    -0.75170
O1384       O  0.49830491  0.16195436  0.04895141    -0.54080
C1385       C  0.99688044  0.17025717  0.07733266     0.78560
O1386       O  0.91562429  0.30195628  0.00011238    -0.59770
O1387       O  0.95381645  0.33767780  0.00024351    -0.52800
C1388       C  0.92533243  0.32991210  0.99998194     0.70570
O1389       O  0.91454373  0.19815019  0.00228200    -0.74330
O1390       O  0.95220999  0.16190208  0.00193686    -0.54890
C1391       C  0.92383957  0.17012589  0.00215574     0.76570
O1392       O  0.00061317  0.30187246  0.08633729    -0.59470
O1393       O  0.00208749  0.33747009  0.04799806    -0.52590
C1394       C  0.00133859  0.32971593  0.07650200     0.73170
Zr1395     Zr  0.00088172  0.24996468  0.06524704     2.54710
O1396       O  0.96264618  0.25150922  0.10610293    -0.80040
O1397       O  0.54283413  0.24907649  0.10221556    -0.93460
Zr1398     Zr  0.93607485  0.24984164  0.00128834     2.64680
O1399       O  0.89749550  0.25049744  0.04191553    -0.98410
O1400       O  0.89671653  0.24956141  0.46158634    -0.80470
O1401       O  0.96780701  0.22014184  0.03387823    -0.83830
O1402       O  0.96809077  0.27963626  0.03370943    -2.18540
O1403       O  0.58641403  0.30104561  0.00179420    -0.67220
O1404       O  0.54848736  0.33694455  0.99983015    -0.51790
C1405       C  0.57686233  0.32898857  0.50089793     0.71550
O1406       O  0.50297761  0.19735318  0.41536330    -0.60130
O1407       O  0.50055183  0.16154341  0.45340618    -0.52110
C1408       C  0.50239887  0.16945614  0.42497098     0.73350
O1409       O  0.49969874  0.30071695  0.41511465    -0.71520
O1410       O  0.00084563  0.33694715  0.45284016    -0.50200
C1411       C  0.50044086  0.32875992  0.42441385     0.74730
O1412       O  0.58553324  0.19749062  0.99886847    -0.66850
O1413       O  0.54776786  0.16140782  0.00101252    -0.54050
C1414       C  0.57622746  0.16948171  0.49987368     0.73120
Zr1415     Zr  0.56480607  0.24927773  0.00049240     2.77540
O1416       O  0.60426911  0.24967933  0.46072114    -0.97600
O1417       O  0.60293892  0.24746619  0.04129609    -0.78420
Zr1418     Zr  0.49997900  0.24905636  0.43647516     2.70070
O1419       O  0.53861570  0.25067813  0.39600505    -0.79670
O1420       O  0.95827320  0.24673066  0.39931270    -0.98750
Zr1421     Zr  0.50010500  0.19038731  0.00114359     2.21500
Zr1422     Zr  0.00089223  0.30835703  0.00049704     2.11130
O1423       O  0.53325253  0.27880343  0.46764411    -2.47440
O1424       O  0.53274268  0.21939027  0.46809610    -0.79460
O1425       O  0.53362011  0.27954463  0.03330637    -0.71660
O1426       O  0.96730436  0.21952065  0.46845389    -2.32620
O1427       O  0.53322871  0.21966183  0.03359359    -2.28820
O1428       O  0.96763387  0.27934309  0.46810994    -0.73420
H1429       H  0.95565451  0.29301063  0.04631649     0.78580
H1430       H  0.95467139  0.20624936  0.45591781     0.79670
H1431       H  0.54587870  0.29183699  0.45486971     0.81890
H1432       H  0.54573638  0.20642234  0.04617297     0.79500
H1433       H  0.90395705  0.23439712  0.44624612     0.42530
H1434       H  0.94457176  0.26390922  0.40507320     0.41500
H1435       H  0.55670022  0.24033279  0.40501398     0.41180
H1436       H  0.59945261  0.26771282  0.44782410     0.39110
H1437       H  0.59562123  0.26252455  0.05670891     0.42250
H1438       H  0.55290806  0.22897385  0.09911091     0.37030
H1439       H  0.94433209  0.24144686  0.09710446     0.43150
H1440       H  0.90275078  0.26854268  0.05473187     0.39560
H1441       H  0.62336354  0.25542368  0.47167326     0.44480
H1442       H  0.53253803  0.24728580  0.12245368     0.43200
H1443       H  0.87822875  0.25632737  0.03138658     0.43340
H1444       H  0.96777498  0.25322225  0.37966704     0.43700
O1445       O  0.80222752  0.08483742  0.00191447    -0.75170
O1446       O  0.83832440  0.04702456  0.00139182    -0.54080
C1447       C  0.83025715  0.07536544  0.00202932     0.78560
O1448       O  0.69892779  0.49763490  0.08583867    -0.59770
O1449       O  0.66276560  0.99800783  0.04817942    -0.52800
C1450       C  0.67085620  0.99748080  0.07662169     0.70570
O1451       O  0.80256698  0.50230727  0.08580939    -0.74330
O1452       O  0.83844887  0.50070612  0.04765815    -0.54890
C1453       C  0.83055224  0.00216056  0.07611855     0.76570
O1454       O  0.69818250  0.08413247  0.99966593    -0.59470
O1455       O  0.66235735  0.04605686  0.00044511    -0.52590
C1456       C  0.67014608  0.07450346  0.99997650     0.73170
Zr1457     Zr  0.75033299  0.06349474  0.00031336     2.54710
O1458       O  0.74910623  0.10245999  0.04044656    -0.80040
O1459       O  0.75077032  0.10209739  0.45993733    -0.93460
Zr1460     Zr  0.75076104  0.49923143  0.06473205     2.64680
O1461       O  0.75023223  0.03846311  0.10465897    -0.98410
O1462       O  0.75173329  0.45827363  0.10269940    -0.80470
O1463       O  0.78029053  0.03200061  0.03288039    -0.83830
O1464       O  0.72073652  0.03178727  0.03324552    -2.18540
O1465       O  0.69859524  0.00106269  0.41471640    -0.67220
O1466       O  0.66276611  0.99942836  0.45292874    -0.51790
C1467       C  0.67059191  0.50057394  0.42443751     0.71550
O1468       O  0.80244649  0.41423396  0.99757092    -0.60130
O1469       O  0.83860800  0.45190957  0.99992831    -0.52110
C1470       C  0.83048289  0.42353600  0.49867155     0.73350
O1471       O  0.69918293  0.41343208  0.00229399    -0.71520
O1472       O  0.66303195  0.45110450  0.00044131    -0.50200
C1473       C  0.67116931  0.42279737  0.50180046     0.74730
O1474       O  0.80266318  0.99754560  0.41422853    -0.66850
O1475       O  0.83843950  0.49898661  0.45264271    -0.54050
C1476       C  0.83050102  0.49797483  0.42423892     0.73120
Zr1477     Zr  0.75066465  0.99933491  0.43567516     2.77540
O1478       O  0.74965996  0.46012776  0.39573352    -0.97600
O1479       O  0.75220389  0.04065149  0.39815583    -0.78420
Zr1480     Zr  0.75077191  0.43510307  0.00036589     2.70070
O1481       O  0.74854917  0.39400116  0.46248906    -0.79670
O1482       O  0.75402986  0.39881181  0.04268015    -0.98750
Zr1483     Zr  0.80961501  0.49941405  0.00016500     2.21500
Zr1484     Zr  0.69160704  0.99887393  0.00043318     2.11130
O1485       O  0.72098157  0.46640267  0.46742108    -2.47440
O1486       O  0.78044728  0.46669413  0.46735739    -0.79460
O1487       O  0.72059262  0.03169263  0.46760190    -0.71660
O1488       O  0.78072906  0.46663737  0.03308265    -2.32620
O1489       O  0.78043392  0.03209055  0.46743674    -2.28820
O1490       O  0.72079001  0.46645981  0.03317580    -0.73420
H1491       H  0.70746665  0.04427980  0.04591449     0.78580
H1492       H  0.79411274  0.45417339  0.04555467     0.79670
H1493       H  0.70776406  0.45372461  0.45487349     0.81890
H1494       H  0.79372771  0.04467045  0.45487945     0.79500
H1495       H  0.76906598  0.44498044  0.09644519     0.42530
H1496       H  0.73590319  0.40334721  0.05568492     0.41500
H1497       H  0.75482887  0.40384732  0.44296985     0.41180
H1498       H  0.73199212  0.44682871  0.40107664     0.39110
H1499       H  0.73806995  0.05636440  0.40652111     0.42250
H1500       H  0.76937727  0.09760547  0.44761882     0.37030
H1501       H  0.75891448  0.09255310  0.05837376     0.43150
H1502       H  0.73125157  0.05034444  0.10094063     0.39560
H1503       H  0.74306814  0.47112457  0.37698128     0.44480
H1504       H  0.75562220  0.12151715  0.47074035     0.43200
H1505       H  0.74611770  0.02707557  0.12390786     0.43340
H1506       H  0.74940727  0.37866023  0.03321636     0.43700
C1507       C  0.90172545  0.35453286  0.99976137    -0.05350
C1508       C  0.87110159  0.34681531  0.00642264    -0.32770
C1509       C  0.84790652  0.36883605  0.00604090     0.36480
C1510       C  0.85486662  0.39969517  0.49895970    -0.05700
C1511       C  0.88555504  0.40761129  0.49256059    -0.32670
C1512       C  0.90887314  0.38544688  0.49301730     0.36380
H1513       H  0.86488848  0.32346370  0.01223027     0.16750
O1514       O  0.81865019  0.35992154  0.01374805    -0.60170
H1515       H  0.89157376  0.43106321  0.48696236     0.16770
O1516       O  0.93832721  0.39422201  0.48597350    -0.60270
H1517       H  0.94701360  0.40215479  0.50551035     0.43760
H1518       H  0.80987728  0.35104952  0.99465747     0.43720
C1519       C  0.90004332  0.14573417  0.00200718    -0.05350
C1520       C  0.90627398  0.11691626  0.01501072    -0.32770
C1521       C  0.88392239  0.09368241  0.01522405     0.36480
C1522       C  0.85470957  0.09907273  0.00229767    -0.05700
C1523       C  0.84864353  0.12780393  0.48918311    -0.32670
C1524       C  0.87088157  0.15094100  0.48894137     0.36380
H1525       H  0.92839653  0.11249516  0.02547082     0.16750
O1526       O  0.89043501  0.06634978  0.02932021    -0.60170
H1527       H  0.82658732  0.13232232  0.47862218     0.16770
O1528       O  0.86424144  0.17812850  0.47462622    -0.60270
H1529       H  0.85219471  0.19008704  0.48984919     0.43760
H1530       H  0.90202436  0.05428155  0.01383403     0.43720
C1531       C  0.60037871  0.35356834  0.50141830    -0.05350
C1532       C  0.62850213  0.34815830  0.01615137    -0.32770
C1533       C  0.65148646  0.37057329  0.01680467     0.36480
C1534       C  0.64669027  0.39916223  0.50249517    -0.05700
C1535       C  0.61839632  0.40478532  0.48808730    -0.32670
C1536       C  0.59534636  0.38231256  0.48746126     0.36380
H1537       H  0.63266546  0.32648047  0.02752309     0.16750
O1538       O  0.67811674  0.36466668  0.03252430    -0.60170
H1539       H  0.61433226  0.42644902  0.47666310     0.16770
O1540       O  0.56865180  0.38816897  0.47183272    -0.60270
H1541       H  0.55572948  0.40006376  0.48636611     0.43760
H1542       H  0.69072195  0.35200194  0.01837002     0.43720
C1543       C  0.64546853  0.09816275  0.00006299    -0.05350
C1544       C  0.65351528  0.12897094  0.00512010    -0.32770
C1545       C  0.63145345  0.15216177  0.00508381     0.36480
C1546       C  0.60015911  0.14506038  0.49998861    -0.05700
C1547       C  0.59194290  0.11419489  0.49516150    -0.32670
C1548       C  0.61415450  0.09088705  0.49527293     0.36380
H1549       H  0.67719450  0.13537260  0.00934577     0.16750
O1550       O  0.64087439  0.18162132  0.01102378    -0.60170
H1551       H  0.56818416  0.10799121  0.49109333     0.16770
O1552       O  0.60494853  0.06126243  0.48989299    -0.60270
H1553       H  0.59836478  0.05330945  0.51021945     0.43760
H1554       H  0.64843631  0.18959946  0.99104787     0.43720
C1555       C  0.90158041  0.99830081  0.35632752    -0.05350
C1556       C  0.89001603  0.47036137  0.36732133    -0.32770
C1557       C  0.86702094  0.46997232  0.38989830     0.36480
C1558       C  0.85523518  0.49774941  0.40133467    -0.05700
C1559       C  0.86714567  0.02564760  0.39068969    -0.32670
C1560       C  0.89033010  0.02604232  0.36833151     0.36380
H1561       H  0.89863239  0.44889948  0.35817273     0.16750
O1562       O  0.85574828  0.44244317  0.40017955    -0.60170
H1563       H  0.85824560  0.04712437  0.39952970     0.16770
O1564       O  0.90117529  0.05355913  0.35755141    -0.60270
H1565       H  0.91449644  0.06171908  0.37413607     0.43760
H1566       H  0.86840250  0.43729568  0.41838942     0.43720
C1567       C  0.64585985  0.50147181  0.40091958    -0.05350
C1568       C  0.65271769  0.01234260  0.37130128    -0.32770
C1569       C  0.63045401  0.01273350  0.34817221     0.36480
C1570       C  0.60039244  0.50209887  0.35425519    -0.05700
C1571       C  0.59330498  0.49175344  0.38404270    -0.32670
C1572       C  0.61561842  0.49144290  0.40724920     0.36380
H1573       H  0.67552967  0.02076821  0.36592243     0.16750
O1574       O  0.63819697  0.02450605  0.31996644    -0.60170
H1575       H  0.57047941  0.48329660  0.38931823     0.16770
O1576       O  0.60784666  0.48004553  0.43559344    -0.60270
H1577       H  0.59815063  0.49742416  0.44667216     0.43760
H1578       H  0.64900992  0.00766557  0.30909091     0.43720
C1579       C  0.64628292  0.99677932  0.10052702    -0.05350
C1580       C  0.61515547  0.99596031  0.09180910    -0.32770
C1581       C  0.59160727  0.49573266  0.11388331     0.36480
C1582       C  0.59885639  0.49611485  0.14555044    -0.05700
C1583       C  0.62996782  0.49654020  0.15414137    -0.32850
C1584       C  0.65340195  0.49705246  0.13223417     0.36380
H1585       H  0.60886518  0.99560351  0.06772239     0.16750
O1586       O  0.56169588  0.49470696  0.10408840    -0.60170
H1587       H  0.63648556  0.49682013  0.17816785     0.16770
O1588       O  0.68321597  0.49760714  0.14238773    -0.60270
H1589       H  0.68791929  0.51956877  0.14609555     0.43760
H1590       H  0.55631399  0.01625214  0.09930637     0.43720
C1591       C  0.89985013  0.00402519  0.14694049    -0.05350
C1592       C  0.90713711  0.49325654  0.11730486    -0.32770
C1593       C  0.88519802  0.49312998  0.09379440     0.36480
C1594       C  0.85512458  0.00369372  0.09968774    -0.05700
C1595       C  0.84816921  0.01536134  0.12902764    -0.32670
C1596       C  0.87011387  0.01564173  0.15245925     0.36380
H1597       H  0.92978923  0.48421467  0.11240202     0.16750
O1598       O  0.89307863  0.48122931  0.06564834    -0.60170
H1599       H  0.82549982  0.02434396  0.13397096     0.16770
O1600       O  0.86240297  0.02813780  0.18039818    -0.60270
H1601       H  0.85089866  0.01181427  0.19135217     0.43760
H1602       H  0.90315942  0.49833876  0.05450223     0.43720
C1603       C  0.00265051  0.09849894  0.35579917    -0.05350
C1604       C  0.51727990  0.12666901  0.35027547    -0.32770
C1605       C  0.51790611  0.14963815  0.37274248     0.36480
C1606       C  0.50354476  0.14483917  0.40144860    -0.05700
C1607       C  0.98944672  0.11641894  0.40726010    -0.32670
C1608       C  0.98901407  0.09332490  0.38480666     0.36380
H1609       H  0.52852868  0.13090885  0.32844234     0.16750
O1610       O  0.53358242  0.17629413  0.36674408    -0.60170
H1611       H  0.97810318  0.11227224  0.42906109     0.16770
O1612       O  0.97392569  0.06639043  0.39098852    -0.60270
H1613       H  0.98881783  0.05379845  0.40265893     0.43760
H1614       H  0.51949626  0.18873747  0.35395883     0.43720
C1615       C  0.50073375  0.40018424  0.35560219    -0.05350
C1616       C  0.50830442  0.36987112  0.34772273    -0.32770
C1617       C  0.50849448  0.34661618  0.36973256     0.36480
C1618       C  0.50098270  0.35322102  0.40065055    -0.05700
C1619       C  0.99396948  0.38367146  0.40874901    -0.32670
C1620       C  0.99393588  0.40703723  0.38665132     0.36380
H1621       H  0.51432400  0.36398171  0.32426032     0.16750
O1622       O  0.51705042  0.31768429  0.36076421    -0.60170
H1623       H  0.98812576  0.38945429  0.43228161     0.16770
O1624       O  0.98621502  0.43620491  0.39559648    -0.60270
H1625       H  0.00553267  0.44537501  0.40348897     0.43760
H1626       H  0.49832410  0.30839847  0.35167625     0.43720
C1627       C  0.00052003  0.35435182  0.09992537    -0.05350
C1628       C  0.98368644  0.34961577  0.12706554    -0.32770
C1629       C  0.98266760  0.37201552  0.15007143     0.36480
C1630       C  0.49876060  0.39982564  0.14630751    -0.05700
C1631       C  0.51519176  0.40487684  0.11892219    -0.32670
C1632       C  0.51614303  0.38241288  0.09580415     0.36380
H1633       H  0.97095489  0.32849656  0.13038450     0.16750
O1634       O  0.96483153  0.36699288  0.17561985    -0.60170
H1635       H  0.52791150  0.42602000  0.11571191     0.16770
O1636       O  0.53368139  0.38747326  0.07006223    -0.60270
H1637       H  0.52057291  0.39987080  0.05623759     0.43760
H1638       H  0.97730116  0.35360405  0.18910382     0.43720
C1639       C  0.99492296  0.09869103  0.14635478    -0.05350
C1640       C  0.99480047  0.12978593  0.15493191    -0.32770
C1641       C  0.99504065  0.15310369  0.13298900     0.36480
C1642       C  0.99525236  0.14586330  0.10128150    -0.05700
C1643       C  0.99438164  0.11475213  0.09259215    -0.32670
C1644       C  0.99424598  0.09133816  0.11467618     0.36380
H1645       H  0.99492540  0.13636988  0.17896265     0.16750
O1646       O  0.99495412  0.18292194  0.14309567    -0.60170
H1647       H  0.99406714  0.10836150  0.06850993     0.16770
O1648       O  0.99312490  0.06144409  0.10487486    -0.60270
H1649       H  0.01463164  0.05609841  0.09962759     0.43760
H1650       H  0.01682824  0.18805359  0.14690611     0.43720
O1651       O  0.91373605  0.00295092  0.69981097    -0.75170
O1652       O  0.95153488  0.00038760  0.66360507    -0.54080
C1653       C  0.92320673  0.00248264  0.67172124     0.78560
O1654       O  0.00230918  0.08487150  0.80303318    -0.59770
O1655       O  0.00046480  0.04678299  0.83881410    -0.52800
C1656       C  0.00171029  0.07515872  0.83100822     0.70570
O1657       O  0.99650571  0.08432768  0.69896672    -0.74330
O1658       O  0.49774654  0.04649306  0.66288622    -0.54890
C1659       C  0.99635530  0.07486515  0.67086072     0.76570
O1660       O  0.91421834  0.99839871  0.80377359    -0.59470
O1661       O  0.95291628  0.49887501  0.83924848    -0.52590
C1662       C  0.92444060  0.99842400  0.83153648     0.73170
Zr1663     Zr  0.93513552  0.99970219  0.75162126     2.54710
O1664       O  0.89666832  0.04007076  0.75384034    -0.80040
O1665       O  0.89609911  0.45963309  0.75064761    -0.93460
Zr1666     Zr  0.00012551  0.06371132  0.75097016     2.64680
O1667       O  0.96124582  0.10375991  0.75222961    -0.98410
O1668       O  0.54151698  0.10132812  0.74911323    -0.80470
O1669       O  0.96705802  0.03196678  0.72157262    -0.83830
O1670       O  0.96732859  0.03231187  0.78111987    -2.18540
O1671       O  0.49927403  0.41423648  0.80298569    -0.67220
O1672       O  0.00059193  0.45222635  0.83894311    -0.51790
C1673       C  0.50007024  0.42382410  0.83103497     0.71550
O1674       O  0.58446218  0.49604927  0.69812360    -0.60130
O1675       O  0.54650985  0.99839625  0.66234507    -0.52110
C1676       C  0.57494707  0.49674869  0.67010691     0.73350
O1677       O  0.58583572  0.50104166  0.80166054    -0.71520
O1678       O  0.54820652  0.50029587  0.83810034    -0.50200
C1679       C  0.57658870  0.50117888  0.82979816     0.74730
O1680       O  0.49874126  0.41365699  0.69896836    -0.66850
O1681       O  0.49949969  0.45161447  0.66296595    -0.54050
C1682       C  0.49899896  0.42324830  0.67096801     0.73120
Zr1683     Zr  0.49898850  0.43504929  0.75089152     2.77540
O1684       O  0.53807271  0.39518082  0.75035312    -0.97600
O1685       O  0.95772734  0.39729477  0.75118445    -0.78420
Zr1686     Zr  0.56392596  0.49932263  0.75012858     2.70070
O1687       O  0.60479669  0.46138297  0.75187938    -0.79670
O1688       O  0.60058048  0.04141378  0.74671458    -0.98750
Zr1689     Zr  0.49923398  0.99915390  0.69188396     2.21500
Zr1690     Zr  0.00020424  0.49941624  0.80985472     2.11130
O1691       O  0.53245930  0.46657351  0.78016834    -2.47440
O1692       O  0.53189124  0.46639160  0.72079688    -0.79460
O1693       O  0.96681966  0.46688193  0.78118190    -0.71660
O1694       O  0.53237248  0.03204627  0.72050718    -2.32620
O1695       O  0.96622810  0.46674821  0.72131353    -2.28820
O1696       O  0.53284938  0.03203305  0.78053456    -0.73420
H1697       H  0.95494750  0.04490556  0.79457042     0.78580
H1698       H  0.54486112  0.04443413  0.70697243     0.79670
H1699       H  0.54521488  0.45407124  0.79324796     0.81890
H1700       H  0.95343325  0.45431920  0.70809699     0.79500
H1701       H  0.55271506  0.09685059  0.72979257     0.42530
H1702       H  0.59673300  0.05392389  0.76534831     0.41500
H1703       H  0.59488304  0.44210257  0.74502055     0.41180
H1704       H  0.55170599  0.40017837  0.76786724     0.39110
H1705       H  0.94149655  0.40663275  0.76411801     0.42250
H1706       H  0.90085242  0.44726732  0.73213263     0.37030
H1707       H  0.90534294  0.05679649  0.74112470     0.43150
H1708       H  0.94808468  0.09867086  0.77009893     0.39560
H1709       H  0.52706514  0.37637244  0.75682586     0.44480
H1710       H  0.87684950  0.47049236  0.74544717     0.43200
H1711       H  0.97251838  0.12246899  0.75857426     0.43340
H1712       H  0.62080152  0.03175243  0.75038611     0.43700
O1713       O  0.99707074  0.19836515  0.58644244    -0.75170
O1714       O  0.49830492  0.16195435  0.54895140    -0.54080
C1715       C  0.99688042  0.17025717  0.57733268     0.78560
O1716       O  0.91562431  0.30195628  0.50011238    -0.59770
O1717       O  0.95381648  0.33767781  0.50024351    -0.52800
C1718       C  0.92533246  0.32991211  0.49998193     0.70570
O1719       O  0.91454373  0.19815021  0.50228200    -0.74330
O1720       O  0.95220998  0.16190209  0.50193686    -0.54890
C1721       C  0.92383957  0.17012590  0.50215574     0.76570
O1722       O  0.00061318  0.30187246  0.58633730    -0.59470
O1723       O  0.00208752  0.33747009  0.54799807    -0.52590
C1724       C  0.00133861  0.32971593  0.57650201     0.73170
Zr1725     Zr  0.00088172  0.24996468  0.56524705     2.54710
O1726       O  0.96264615  0.25150922  0.60610292    -0.80040
O1727       O  0.54283417  0.24907646  0.60221555    -0.93460
Zr1728     Zr  0.93607486  0.24984165  0.50128834     2.64680
O1729       O  0.89749551  0.25049745  0.54191551    -0.98410
O1730       O  0.89671650  0.24956140  0.96158636    -0.80470
O1731       O  0.96780701  0.22014184  0.53387823    -0.83830
O1732       O  0.96809078  0.27963626  0.53370943    -2.18540
O1733       O  0.58641402  0.30104561  0.50179422    -0.67220
O1734       O  0.54848736  0.33694455  0.49983018    -0.51790
C1735       C  0.57686234  0.32898857  0.00089790     0.71550
O1736       O  0.50297765  0.19735317  0.91536331    -0.60130
O1737       O  0.50055186  0.16154340  0.95340618    -0.52110
C1738       C  0.50239891  0.16945613  0.92497099     0.73350
O1739       O  0.49969879  0.30071694  0.91511463    -0.71520
O1740       O  0.00084559  0.33694716  0.95284015    -0.50200
C1741       C  0.50044089  0.32875991  0.92441383     0.74730
O1742       O  0.58553322  0.19749062  0.49886845    -0.66850
O1743       O  0.54776784  0.16140782  0.50101250    -0.54050
C1744       C  0.57622748  0.16948171  0.99987369     0.73120
Zr1745     Zr  0.56480606  0.24927773  0.50049238     2.77540
O1746       O  0.60426916  0.24967931  0.96072121    -0.97600
O1747       O  0.60293895  0.24746617  0.54129602    -0.78420
Zr1748     Zr  0.49997903  0.24905635  0.93647516     2.70070
O1749       O  0.53861573  0.25067810  0.89600504    -0.79670
O1750       O  0.95827318  0.24673067  0.89931268    -0.98750
Zr1751     Zr  0.50010499  0.19038731  0.50114359     2.21500
Zr1752     Zr  0.00089225  0.30835702  0.50049704     2.11130
O1753       O  0.53325255  0.27880343  0.96764411    -2.47440
O1754       O  0.53274270  0.21939026  0.96809612    -0.79460
O1755       O  0.53362012  0.27954462  0.53330636    -0.71660
O1756       O  0.96730434  0.21952066  0.96845389    -2.32620
O1757       O  0.53322871  0.21966183  0.53359358    -2.28820
O1758       O  0.96763385  0.27934309  0.96810994    -0.73420
H1759       H  0.95565452  0.29301063  0.54631648     0.78580
H1760       H  0.95467137  0.20624936  0.95591781     0.79670
H1761       H  0.54587872  0.29183698  0.95486972     0.81890
H1762       H  0.54573639  0.20642233  0.54617295     0.79500
H1763       H  0.90395704  0.23439713  0.94624612     0.42530
H1764       H  0.94457173  0.26390922  0.90507318     0.41500
H1765       H  0.55670026  0.24033277  0.90501398     0.41180
H1766       H  0.59945265  0.26771278  0.94782413     0.39110
H1767       H  0.59562124  0.26252449  0.55670888     0.42250
H1768       H  0.55290808  0.22897382  0.59911090     0.37030
H1769       H  0.94433210  0.24144676  0.59710447     0.43150
H1770       H  0.90275080  0.26854268  0.55473187     0.39560
H1771       H  0.62336358  0.25542370  0.97167334     0.44480
H1772       H  0.53253808  0.24728579  0.62245367     0.43200
H1773       H  0.87822876  0.25632740  0.53138656     0.43340
H1774       H  0.96777496  0.25322227  0.87966703     0.43700
O1775       O  0.80222750  0.08483744  0.50191447    -0.75170
O1776       O  0.83832439  0.04702459  0.50139181    -0.54080
C1777       C  0.83025713  0.07536546  0.50202932     0.78560
O1778       O  0.69892780  0.49763488  0.58583869    -0.59770
O1779       O  0.66276559  0.99800784  0.54817941    -0.52800
C1780       C  0.67085619  0.99748081  0.57662168     0.70570
O1781       O  0.80256700  0.50230725  0.58580940    -0.74330
O1782       O  0.83844888  0.50070611  0.54765816    -0.54890
C1783       C  0.83055223  0.00216056  0.57611853     0.76570
O1784       O  0.69818248  0.08413247  0.49966593    -0.59470
O1785       O  0.66235734  0.04605686  0.50044511    -0.52590
C1786       C  0.67014606  0.07450345  0.49997650     0.73170
Zr1787     Zr  0.75033297  0.06349475  0.50031336     2.54710
O1788       O  0.74910620  0.10245999  0.54044656    -0.80040
O1789       O  0.75077034  0.10209737  0.95993733    -0.93460
Zr1790     Zr  0.75076105  0.49923142  0.56473206     2.64680
O1791       O  0.75023223  0.03846313  0.60465894    -0.98410
O1792       O  0.75173332  0.45827368  0.60269947    -0.80470
O1793       O  0.78029052  0.03200062  0.53288038    -0.83830
O1794       O  0.72073651  0.03178728  0.53324551    -2.18540
O1795       O  0.69859524  0.00106269  0.91471641    -0.67220
O1796       O  0.66276612  0.99942836  0.95292875    -0.51790
C1797       C  0.67059191  0.50057394  0.92443750     0.71550
O1798       O  0.80244650  0.41423395  0.49757094    -0.60130
O1799       O  0.83860802  0.45190957  0.49992831    -0.52110
C1800       C  0.83048287  0.42353601  0.99867154     0.73350
O1801       O  0.69918294  0.41343207  0.50229403    -0.71520
O1802       O  0.66303196  0.45110449  0.50044136    -0.50200
C1803       C  0.67116931  0.42279738  0.00180041     0.74730
O1804       O  0.80266318  0.99754558  0.91422855    -0.66850
O1805       O  0.83843950  0.49898660  0.95264270    -0.54050
C1806       C  0.83050102  0.49797482  0.92423892     0.73120
Zr1807     Zr  0.75066466  0.99933489  0.93567517     2.77540
O1808       O  0.74965997  0.46012777  0.89573350    -0.97600
O1809       O  0.75220391  0.04065146  0.89815582    -0.78420
Zr1810     Zr  0.75077192  0.43510306  0.50036590     2.70070
O1811       O  0.74854917  0.39400113  0.96248910    -0.79670
O1812       O  0.75402987  0.39881175  0.54268012    -0.98750
Zr1813     Zr  0.80961501  0.49941404  0.50016500     2.21500
Zr1814     Zr  0.69160704  0.99887393  0.50043317     2.11130
O1815       O  0.72098157  0.46640268  0.96742107    -2.47440
O1816       O  0.78044728  0.46669413  0.96735738    -0.79460
O1817       O  0.72059263  0.03169263  0.96760190    -0.71660
O1818       O  0.78072907  0.46663736  0.53308266    -2.32620
O1819       O  0.78043392  0.03209053  0.96743675    -2.28820
O1820       O  0.72079002  0.46645980  0.53317581    -0.73420
H1821       H  0.70746664  0.04427980  0.54591448     0.78580
H1822       H  0.79411274  0.45417338  0.54555467     0.79670
H1823       H  0.70776406  0.45372462  0.95487347     0.81890
H1824       H  0.79372772  0.04467043  0.95487946     0.79500
H1825       H  0.76906582  0.44498032  0.59644509     0.42530
H1826       H  0.73590322  0.40334715  0.55568491     0.41500
H1827       H  0.75482880  0.40384729  0.94296986     0.41180
H1828       H  0.73199214  0.44682871  0.90107663     0.39110
H1829       H  0.73806999  0.05636439  0.90652111     0.42250
H1830       H  0.76937729  0.09760545  0.94761882     0.37030
H1831       H  0.75891447  0.09255311  0.55837375     0.43150
H1832       H  0.73125157  0.05034447  0.60094059     0.39560
H1833       H  0.74306815  0.47112458  0.87698126     0.44480
H1834       H  0.75562223  0.12151713  0.97074035     0.43200
H1835       H  0.74611769  0.02707561  0.62390783     0.43340
H1836       H  0.74940726  0.37866018  0.53321631     0.43700
C1837       C  0.90172547  0.35453287  0.49976137    -0.05350
C1838       C  0.87110163  0.34681531  0.50642266    -0.32770
C1839       C  0.84790655  0.36883606  0.50604093     0.36480
C1840       C  0.85486660  0.39969516  0.99895969    -0.05700
C1841       C  0.88555503  0.40761129  0.99256061    -0.32670
C1842       C  0.90887312  0.38544688  0.99301732     0.36380
H1843       H  0.86488851  0.32346371  0.51223032     0.16750
O1844       O  0.81865023  0.35992154  0.51374811    -0.60170
H1845       H  0.89157375  0.43106322  0.98696239     0.16770
O1846       O  0.93832720  0.39422201  0.98597355    -0.60270
H1847       H  0.94701357  0.40215477  0.00551041     0.43760
H1848       H  0.80987730  0.35104951  0.49465754     0.43720
C1849       C  0.90004331  0.14573419  0.50200719    -0.05350
C1850       C  0.90627396  0.11691627  0.51501071    -0.32770
C1851       C  0.88392237  0.09368242  0.51522404     0.36480
C1852       C  0.85470955  0.09907275  0.50229768    -0.05700
C1853       C  0.84864356  0.12780390  0.98918309    -0.32670
C1854       C  0.87088159  0.15094098  0.98894135     0.36380
H1855       H  0.92839652  0.11249516  0.52547080     0.16750
O1856       O  0.89043500  0.06634979  0.52932019    -0.60170
H1857       H  0.82658735  0.13232228  0.97862214     0.16770
O1858       O  0.86424147  0.17812847  0.97462618    -0.60270
H1859       H  0.85219472  0.19008701  0.98984914     0.43760
H1860       H  0.90202434  0.05428157  0.51383400     0.43720
C1861       C  0.60037872  0.35356834  0.00141825    -0.05350
C1862       C  0.62850213  0.34815828  0.51615140    -0.32770
C1863       C  0.65148646  0.37057328  0.51680470     0.36480
C1864       C  0.64669027  0.39916223  0.00249510    -0.05700
C1865       C  0.61839633  0.40478531  0.98808721    -0.32670
C1866       C  0.59534638  0.38231254  0.98746117     0.36380
H1867       H  0.63266547  0.32648044  0.52752310     0.16750
O1868       O  0.67811676  0.36466665  0.53252432    -0.60170
H1869       H  0.61433228  0.42644900  0.97666298     0.16770
O1870       O  0.56865183  0.38816893  0.97183259    -0.60270
H1871       H  0.55572950  0.40006376  0.98636595     0.43760
H1872       H  0.69072196  0.35200192  0.51837003     0.43720
C1873       C  0.64546852  0.09816274  0.50006299    -0.05350
C1874       C  0.65351526  0.12897093  0.50512012    -0.32770
C1875       C  0.63145343  0.15216176  0.50508382     0.36480
C1876       C  0.60015912  0.14506039  0.99998862    -0.05700
C1877       C  0.59194291  0.11419489  0.99516153    -0.32670
C1878       C  0.61415452  0.09088705  0.99527296     0.36380
H1879       H  0.67719448  0.13537259  0.50934581     0.16750
O1880       O  0.64087436  0.18162131  0.51102382    -0.60170
H1881       H  0.56818417  0.10799121  0.99109339     0.16770
O1882       O  0.60494854  0.06126243  0.98989304    -0.60270
H1883       H  0.59836480  0.05330946  0.01021951     0.43760
H1884       H  0.64843631  0.18959946  0.49104793     0.43720
C1885       C  0.90158037  0.99830082  0.85632750    -0.05350
C1886       C  0.89001606  0.47036135  0.86732134    -0.32770
C1887       C  0.86702096  0.46997230  0.88989831     0.36480
C1888       C  0.85523519  0.49774940  0.90133467    -0.05700
C1889       C  0.86714568  0.02564760  0.89068972    -0.32670
C1890       C  0.89033009  0.02604233  0.86833153     0.36380
H1891       H  0.89863242  0.44889946  0.85817275     0.16750
O1892       O  0.85574830  0.44244316  0.90017957    -0.60170
H1893       H  0.85824563  0.04712437  0.89952977     0.16770
O1894       O  0.90117530  0.05355914  0.85755145    -0.60270
H1895       H  0.91449638  0.06171911  0.87413615     0.43760
H1896       H  0.86840256  0.43729565  0.91838941     0.43720
C1897       C  0.64585985  0.50147180  0.90091957    -0.05350
C1898       C  0.65271770  0.01234263  0.87130129    -0.32770
C1899       C  0.63045401  0.01273352  0.84817222     0.36480
C1900       C  0.60039244  0.50209885  0.85425518    -0.05700
C1901       C  0.59330498  0.49175341  0.88404269    -0.32670
C1902       C  0.61561843  0.49144287  0.90724918     0.36380
H1903       H  0.67552967  0.02076824  0.86592244     0.16750
O1904       O  0.63819697  0.02450609  0.81996645    -0.60170
H1905       H  0.57047941  0.48329657  0.88931822     0.16770
O1906       O  0.60784667  0.48004549  0.93559343    -0.60270
H1907       H  0.59815063  0.49742412  0.94667215     0.43760
H1908       H  0.64900993  0.00766563  0.80909092     0.43720
C1909       C  0.64628292  0.99677934  0.60052702    -0.05350
C1910       C  0.61515547  0.99596038  0.59180910    -0.32770
C1911       C  0.59160729  0.49573243  0.61388333     0.36480
C1912       C  0.59885640  0.49611487  0.64555046    -0.05700
C1913       C  0.62996783  0.49654051  0.65414139    -0.32850
C1914       C  0.65340196  0.49705277  0.63223419     0.36380
H1915       H  0.60886517  0.99560363  0.56772239     0.16750
O1916       O  0.56169591  0.49470644  0.60408843    -0.60170
H1917       H  0.63648556  0.49682066  0.67816787     0.16770
O1918       O  0.68321597  0.49760776  0.64238775    -0.60270
H1919       H  0.68791915  0.51956947  0.64609535     0.43760
H1920       H  0.55631403  0.01625232  0.59930641     0.43720
C1921       C  0.89985013  0.00402519  0.64694048    -0.05350
C1922       C  0.90713712  0.49325651  0.61730487    -0.32770
C1923       C  0.88519803  0.49312995  0.59379440     0.36480
C1924       C  0.85512458  0.00369372  0.59968773    -0.05700
C1925       C  0.84816921  0.01536135  0.62902762    -0.32670
C1926       C  0.87011388  0.01564174  0.65245923     0.36380
H1927       H  0.92978925  0.48421465  0.61240203     0.16750
O1928       O  0.89307865  0.48122929  0.56564835    -0.60170
H1929       H  0.82549983  0.02434398  0.63397094     0.16770
O1930       O  0.86240298  0.02813782  0.68039815    -0.60270
H1931       H  0.85089866  0.01181430  0.69135215     0.43760
H1932       H  0.90315943  0.49833875  0.55450224     0.43720
C1933       C  0.00265047  0.09849894  0.85579918    -0.05350
C1934       C  0.51727993  0.12666900  0.85027547    -0.32770
C1935       C  0.51790615  0.14963814  0.87274249     0.36480
C1936       C  0.50354480  0.14483915  0.90144861    -0.05700
C1937       C  0.98944665  0.11641896  0.90726009    -0.32670
C1938       C  0.98901401  0.09332491  0.88480666     0.36380
H1939       H  0.52852870  0.13090884  0.82844234     0.16750
O1940       O  0.53358245  0.17629412  0.86674409    -0.60170
H1941       H  0.97810310  0.11227227  0.92906108     0.16770
O1942       O  0.97392562  0.06639044  0.89098852    -0.60270
H1943       H  0.98881774  0.05379846  0.90265895     0.43760
H1944       H  0.51949629  0.18873746  0.85395884     0.43720
C1945       C  0.50073372  0.40018424  0.85560217    -0.05350
C1946       C  0.50830440  0.36987112  0.84772271    -0.32770
C1947       C  0.50849449  0.34661618  0.86973254     0.36480
C1948       C  0.50098271  0.35322101  0.90065053    -0.05700
C1949       C  0.99396945  0.38367146  0.90874899    -0.32670
C1950       C  0.99393587  0.40703723  0.88665131     0.36380
H1951       H  0.51432398  0.36398171  0.82426029     0.16750
O1952       O  0.51705044  0.31768429  0.86076418    -0.60170
H1953       H  0.98812571  0.38945430  0.93228159     0.16770
O1954       O  0.98621500  0.43620491  0.89559646    -0.60270
H1955       H  0.00553265  0.44537501  0.90348896     0.43760
H1956       H  0.49832413  0.30839846  0.85167623     0.43720
C1957       C  0.00052006  0.35435182  0.59992537    -0.05350
C1958       C  0.98368644  0.34961579  0.62706552    -0.32770
C1959       C  0.98266761  0.37201555  0.65007142     0.36480
C1960       C  0.49876061  0.39982566  0.64630750    -0.05700
C1961       C  0.51519179  0.40487684  0.61892219    -0.32670
C1962       C  0.51614307  0.38241288  0.59580416     0.36380
H1963       H  0.97095487  0.32849660  0.63038448     0.16750
O1964       O  0.96483150  0.36699293  0.67561982    -0.60170
H1965       H  0.52791154  0.42602000  0.61571191     0.16770
O1966       O  0.53368146  0.38747325  0.57006224    -0.60270
H1967       H  0.52057298  0.39987078  0.55623759     0.43760
H1968       H  0.97730111  0.35360409  0.68910380     0.43720
C1969       C  0.99492293  0.09869104  0.64635480    -0.05350
C1970       C  0.99480039  0.12978594  0.65493193    -0.32770
C1971       C  0.99504057  0.15310370  0.63298901     0.36480
C1972       C  0.99525233  0.14586330  0.60128151    -0.05700
C1973       C  0.99438166  0.11475214  0.59259217    -0.32670
C1974       C  0.99424600  0.09133817  0.61467620     0.36380
H1975       H  0.99492528  0.13636989  0.67896267     0.16750
O1976       O  0.99495400  0.18292196  0.64309568    -0.60170
H1977       H  0.99406719  0.10836151  0.56850994     0.16770
O1978       O  0.99312496  0.06144409  0.60487488    -0.60270
H1979       H  0.01463173  0.05609842  0.59962770     0.43760
H1980       H  0.01682810  0.18805362  0.64690615     0.43720
O1981       O  0.91373603  0.50295090  0.19981100    -0.75170
O1982       O  0.95153485  0.50038758  0.16360509    -0.54080
C1983       C  0.92320670  0.50248262  0.17172126     0.78560
O1984       O  0.00230918  0.58487150  0.30303317    -0.59770
O1985       O  0.00046482  0.54678299  0.33881410    -0.52800
C1986       C  0.00171030  0.57515872  0.33100822     0.70570
O1987       O  0.99650579  0.58432767  0.19896671    -0.74330
O1988       O  0.49774655  0.54649306  0.16288623    -0.54890
C1989       C  0.99635536  0.57486514  0.17086071     0.76570
O1990       O  0.91421835  0.49839871  0.30377361    -0.59470
O1991       O  0.95291628  0.99887501  0.33924847    -0.52590
C1992       C  0.92444062  0.49842399  0.33153650     0.73170
Zr1993     Zr  0.93513551  0.49970218  0.25162127     2.54710
O1994       O  0.89666832  0.54007076  0.25384037    -0.80040
O1995       O  0.89609913  0.95963307  0.25064758    -0.93460
Zr1996     Zr  0.00012550  0.56371131  0.25097015     2.64680
O1997       O  0.96124574  0.60375984  0.25222957    -0.98410
O1998       O  0.54151692  0.60132815  0.24911326    -0.80470
O1999       O  0.96705800  0.53196677  0.22157262    -0.83830
O2000       O  0.96732859  0.53231186  0.28111988    -2.18540
O2001       O  0.49927407  0.91423648  0.30298570    -0.67220
O2002       O  0.00059195  0.95222635  0.33894311    -0.51790
C2003       C  0.50007027  0.92382410  0.33103498     0.71550
O2004       O  0.58446220  0.99604920  0.19812361    -0.60130
O2005       O  0.54650982  0.49839628  0.16234506    -0.52110
C2006       C  0.57494709  0.99674860  0.17010692     0.73350
O2007       O  0.58583572  0.00104168  0.30166055    -0.71520
O2008       O  0.54820651  0.00029589  0.33810034    -0.50200
C2009       C  0.57658870  0.00117890  0.32979817     0.74730
O2010       O  0.49874127  0.91365698  0.19896837    -0.66850
O2011       O  0.49949969  0.95161446  0.16296595    -0.54050
C2012       C  0.49899897  0.92324829  0.17096801     0.73120
Zr2013     Zr  0.49898851  0.93504928  0.25089152     2.77540
O2014       O  0.53807270  0.89518080  0.25035311    -0.97600
O2015       O  0.95772731  0.89729480  0.25118448    -0.78420
Zr2016     Zr  0.56392596  0.99932263  0.25012859     2.70070
O2017       O  0.60479672  0.96138299  0.25187943    -0.79670
O2018       O  0.60058049  0.54141377  0.24671459    -0.98750
Zr2019     Zr  0.49923396  0.49915389  0.19188396     2.21500
Zr2020     Zr  0.00020425  0.99941625  0.30985472     2.11130
O2021       O  0.53245930  0.96657352  0.28016835    -2.47440
O2022       O  0.53189125  0.96639160  0.22079689    -0.79460
O2023       O  0.96681967  0.96688193  0.28118190    -0.71660
O2024       O  0.53237246  0.53204627  0.22050718    -2.32620
O2025       O  0.96622810  0.96674821  0.22131352    -2.28820
O2026       O  0.53284937  0.53203304  0.28053456    -0.73420
H2027       H  0.95494750  0.54490555  0.29457042     0.78580
H2028       H  0.54486110  0.54443413  0.20697243     0.79670
H2029       H  0.54521488  0.95407124  0.29324797     0.81890
H2030       H  0.95343325  0.95431920  0.20809699     0.79500
H2031       H  0.55271510  0.59685054  0.22979268     0.42530
H2032       H  0.59673300  0.55392389  0.26534833     0.41500
H2033       H  0.59488309  0.94210260  0.24502056     0.41180
H2034       H  0.55170600  0.90017836  0.26786720     0.39110
H2035       H  0.94149658  0.90663275  0.26411814     0.42250
H2036       H  0.90085245  0.94726732  0.23213260     0.37030
H2037       H  0.90534291  0.55679647  0.24112468     0.43150
H2038       H  0.94808463  0.59867079  0.27009891     0.39560
H2039       H  0.52706512  0.87637242  0.25682589     0.44480
H2040       H  0.87684953  0.97049233  0.24544715     0.43200
H2041       H  0.97251828  0.62246895  0.25857419     0.43340
H2042       H  0.62080152  0.53175242  0.25038614     0.43700
O2043       O  0.99707079  0.69836515  0.08644243    -0.75170
O2044       O  0.49830496  0.66195436  0.04895140    -0.54080
C2045       C  0.99688048  0.67025717  0.07733267     0.78560
O2046       O  0.91562430  0.80195627  0.00011236    -0.59770
O2047       O  0.95381647  0.83767780  0.00024350    -0.52800
C2048       C  0.92533245  0.82991209  0.99998192     0.70570
O2049       O  0.91454374  0.69815019  0.00228197    -0.74330
O2050       O  0.95221000  0.66190208  0.00193685    -0.54890
C2051       C  0.92383958  0.67012589  0.00215572     0.76570
O2052       O  0.00061316  0.80187245  0.08633730    -0.59470
O2053       O  0.00208750  0.83747008  0.04799806    -0.52590
C2054       C  0.00133858  0.82971593  0.07650200     0.73170
Zr2055     Zr  0.00088172  0.74996467  0.06524704     2.54710
O2056       O  0.96264614  0.75150919  0.10610290    -0.80040
O2057       O  0.54283414  0.74907648  0.10221557    -0.93460
Zr2058     Zr  0.93607486  0.74984163  0.00128832     2.64680
O2059       O  0.89749551  0.75049743  0.04191550    -0.98410
O2060       O  0.89671651  0.74956141  0.46158635    -0.80470
O2061       O  0.96780701  0.72014183  0.03387822    -0.83830
O2062       O  0.96809077  0.77963626  0.03370941    -2.18540
O2063       O  0.58641401  0.80104562  0.00179420    -0.67220
O2064       O  0.54848734  0.83694457  0.99983015    -0.51790
C2065       C  0.57686235  0.82898856  0.50089793     0.71550
O2066       O  0.50297764  0.69735317  0.41536331    -0.60130
O2067       O  0.50055185  0.66154340  0.45340618    -0.52110
C2068       C  0.50239889  0.66945613  0.42497098     0.73350
O2069       O  0.49969880  0.80071695  0.41511464    -0.71520
O2070       O  0.00084561  0.83694716  0.45284016    -0.50200
C2071       C  0.50044091  0.82875992  0.42441384     0.74730
O2072       O  0.58553324  0.69749064  0.99886846    -0.66850
O2073       O  0.54776786  0.66140783  0.00101249    -0.54050
C2074       C  0.57622747  0.66948170  0.49987369     0.73120
Zr2075     Zr  0.56480606  0.74927774  0.00049238     2.77540
O2076       O  0.60426915  0.74967931  0.46072119    -0.97600
O2077       O  0.60293893  0.74746621  0.04129605    -0.78420
Zr2078     Zr  0.49997903  0.74905636  0.43647516     2.70070
O2079       O  0.53861572  0.75067810  0.39600503    -0.79670
O2080       O  0.95827317  0.74673068  0.39931269    -0.98750
Zr2081     Zr  0.50010500  0.69038731  0.00114359     2.21500
Zr2082     Zr  0.00089224  0.80835702  0.00049703     2.11130
O2083       O  0.53325255  0.77880343  0.46764411    -2.47440
O2084       O  0.53274269  0.71939026  0.46809611    -0.79460
O2085       O  0.53362011  0.77954463  0.03330636    -0.71660
O2086       O  0.96730434  0.71952066  0.46845389    -2.32620
O2087       O  0.53322871  0.71966183  0.03359358    -2.28820
O2088       O  0.96763385  0.77934310  0.46810995    -0.73420
H2089       H  0.95565451  0.79301062  0.04631647     0.78580
H2090       H  0.95467137  0.70624936  0.45591781     0.79670
H2091       H  0.54587873  0.79183698  0.45486972     0.81890
H2092       H  0.54573639  0.70642235  0.04617295     0.79500
H2093       H  0.90395703  0.73439711  0.44624614     0.42530
H2094       H  0.94457172  0.76390923  0.40507320     0.41500
H2095       H  0.55670026  0.74033280  0.40501399     0.41180
H2096       H  0.59945265  0.76771280  0.44782414     0.39110
H2097       H  0.59562120  0.76252453  0.05670890     0.42250
H2098       H  0.55290812  0.72897388  0.09911086     0.37030
H2099       H  0.94433208  0.74144676  0.09710442     0.43150
H2100       H  0.90275079  0.76854268  0.05473185     0.39560
H2101       H  0.62336357  0.75542368  0.47167332     0.44480
H2102       H  0.53253804  0.74728570  0.12245368     0.43200
H2103       H  0.87822876  0.75632736  0.03138655     0.43340
H2104       H  0.96777494  0.75322227  0.37966704     0.43700
O2105       O  0.80222751  0.58483743  0.00191445    -0.75170
O2106       O  0.83832440  0.54702457  0.00139181    -0.54080
C2107       C  0.83025714  0.57536544  0.00202930     0.78560
O2108       O  0.69892781  0.99763482  0.08583869    -0.59770
O2109       O  0.66276557  0.49800789  0.04817939    -0.52800
C2110       C  0.67085617  0.49748088  0.07662167     0.70570
O2111       O  0.80256701  0.00230727  0.08580940    -0.74330
O2112       O  0.83844889  0.00070612  0.04765815    -0.54890
C2113       C  0.83055221  0.50216056  0.07611855     0.76570
O2114       O  0.69818249  0.58413248  0.99966592    -0.59470
O2115       O  0.66235735  0.54605688  0.00044508    -0.52590
C2116       C  0.67014608  0.57450347  0.99997648     0.73170
Zr2117     Zr  0.75033298  0.56349476  0.00031334     2.54710
O2118       O  0.74910623  0.60246000  0.04044654    -0.80040
O2119       O  0.75077033  0.60209736  0.45993731    -0.93460
Zr2120     Zr  0.75076106  0.99923141  0.06473206     2.64680
O2121       O  0.75023224  0.53846309  0.10465899    -0.98410
O2122       O  0.75173336  0.95827364  0.10269945    -0.80470
O2123       O  0.78029051  0.53200062  0.03288038    -0.83830
O2124       O  0.72073651  0.53178729  0.03324550    -2.18540
O2125       O  0.69859524  0.50106268  0.41471641    -0.67220
O2126       O  0.66276611  0.49942835  0.45292874    -0.51790
C2127       C  0.67059190  0.00057395  0.42443751     0.71550
O2128       O  0.80244650  0.91423395  0.99757093    -0.60130
O2129       O  0.83860802  0.95190956  0.99992831    -0.52110
C2130       C  0.83048288  0.92353602  0.49867154     0.73350
O2131       O  0.69918293  0.91343207  0.00229400    -0.71520
O2132       O  0.66303195  0.95110449  0.00044132    -0.50200
C2133       C  0.67116932  0.92279737  0.50180043     0.74730
O2134       O  0.80266318  0.49754558  0.41422855    -0.66850
O2135       O  0.83843950  0.99898661  0.45264269    -0.54050
C2136       C  0.83050102  0.99797484  0.42423890     0.73120
Zr2137     Zr  0.75066466  0.49933489  0.43567517     2.77540
O2138       O  0.74965996  0.96012779  0.39573350    -0.97600
O2139       O  0.75220391  0.54065146  0.39815583    -0.78420
Zr2140     Zr  0.75077192  0.93510306  0.00036589     2.70070
O2141       O  0.74854918  0.89400115  0.46248907    -0.79670
O2142       O  0.75402986  0.89881176  0.04268013    -0.98750
Zr2143     Zr  0.80961502  0.99941404  0.00016500     2.21500
Zr2144     Zr  0.69160703  0.49887394  0.00043316     2.11130
O2145       O  0.72098157  0.96640268  0.46742107    -2.47440
O2146       O  0.78044728  0.96669414  0.46735737    -0.79460
O2147       O  0.72059263  0.53169262  0.46760190    -0.71660
O2148       O  0.78072907  0.96663735  0.03308266    -2.32620
O2149       O  0.78043392  0.53209053  0.46743675    -2.28820
O2150       O  0.72079002  0.96645980  0.03317581    -0.73420
H2151       H  0.70746665  0.54427982  0.04591447     0.78580
H2152       H  0.79411275  0.95417338  0.04555467     0.79670
H2153       H  0.70776406  0.95372462  0.45487347     0.81890
H2154       H  0.79372772  0.54467043  0.45487946     0.79500
H2155       H  0.76906597  0.94498039  0.09644515     0.42530
H2156       H  0.73590321  0.90334718  0.05568492     0.41500
H2157       H  0.75482882  0.90384732  0.44296984     0.41180
H2158       H  0.73199214  0.94682872  0.40107663     0.39110
H2159       H  0.73806997  0.55636438  0.40652111     0.42250
H2160       H  0.76937729  0.59760544  0.44761881     0.37030
H2161       H  0.75891444  0.59255310  0.05837375     0.43150
H2162       H  0.73125162  0.55034447  0.10094063     0.39560
H2163       H  0.74306812  0.97112460  0.37698126     0.44480
H2164       H  0.75562221  0.62151713  0.47074033     0.43200
H2165       H  0.74611766  0.52707555  0.12390786     0.43340
H2166       H  0.74940725  0.87866020  0.03321633     0.43700
C2167       C  0.90172546  0.85453285  0.99976135    -0.05350
C2168       C  0.87110161  0.84681530  0.00642264    -0.32770
C2169       C  0.84790653  0.86883605  0.00604090     0.36480
C2170       C  0.85486661  0.89969518  0.49895970    -0.05700
C2171       C  0.88555504  0.90761130  0.49256061    -0.32670
C2172       C  0.90887313  0.88544689  0.49301732     0.36380
H2173       H  0.86488850  0.82346370  0.01223028     0.16750
O2174       O  0.81865021  0.85992153  0.01374808    -0.60170
H2175       H  0.89157377  0.93106322  0.48696237     0.16770
O2176       O  0.93832721  0.89422201  0.48597353    -0.60270
H2177       H  0.94701359  0.90215478  0.50551039     0.43760
H2178       H  0.80987729  0.85104951  0.99465751     0.43720
C2179       C  0.90004333  0.64573417  0.00200716    -0.05350
C2180       C  0.90627398  0.61691625  0.01501069    -0.32770
C2181       C  0.88392239  0.59368240  0.01522402     0.36480
C2182       C  0.85470957  0.59907273  0.00229766    -0.05700
C2183       C  0.84864355  0.62780391  0.48918312    -0.32670
C2184       C  0.87088158  0.65094099  0.48894138     0.36380
H2185       H  0.92839654  0.61249514  0.02547078     0.16750
O2186       O  0.89043502  0.56634977  0.02932017    -0.60170
H2187       H  0.82658734  0.63232229  0.47862218     0.16770
O2188       O  0.86424145  0.67812848  0.47462623    -0.60270
H2189       H  0.85219471  0.69008702  0.48984919     0.43760
H2190       H  0.90202436  0.55428155  0.01383398     0.43720
C2191       C  0.60037873  0.85356833  0.50141829    -0.05350
C2192       C  0.62850211  0.84815830  0.01615138    -0.32770
C2193       C  0.65148645  0.87057329  0.01680468     0.36480
C2194       C  0.64669028  0.89916222  0.50249513    -0.05700
C2195       C  0.61839633  0.90478531  0.48808726    -0.32670
C2196       C  0.59534638  0.88231255  0.48746123     0.36380
H2197       H  0.63266544  0.82648047  0.02752310     0.16750
O2198       O  0.67811673  0.86466667  0.03252431    -0.60170
H2199       H  0.61433227  0.92644900  0.47666305     0.16770
O2200       O  0.56865182  0.88816894  0.47183268    -0.60270
H2201       H  0.55572950  0.90006375  0.48636606     0.43760
H2202       H  0.69072194  0.85200193  0.01837003     0.43720
C2203       C  0.64546853  0.59816276  0.00006297    -0.05350
C2204       C  0.65351528  0.62897095  0.00512009    -0.32770
C2205       C  0.63145345  0.65216178  0.00508379     0.36480
C2206       C  0.60015912  0.64506038  0.49998862    -0.05700
C2207       C  0.59194291  0.61419489  0.49516152    -0.32670
C2208       C  0.61415451  0.59088705  0.49527296     0.36380
H2209       H  0.67719450  0.63537261  0.00934576     0.16750
O2210       O  0.64087438  0.68162133  0.01102378    -0.60170
H2211       H  0.56818417  0.60799121  0.49109338     0.16770
O2212       O  0.60494854  0.56126242  0.48989303    -0.60270
H2213       H  0.59836480  0.55330945  0.51021950     0.43760
H2214       H  0.64843631  0.68959948  0.99104787     0.43720
C2215       C  0.90158039  0.49830082  0.35632752    -0.05350
C2216       C  0.89001606  0.97036136  0.36732135    -0.32770
C2217       C  0.86702096  0.96997232  0.38989831     0.36480
C2218       C  0.85523518  0.99774941  0.40133466    -0.05700
C2219       C  0.86714568  0.52564760  0.39068973    -0.32670
C2220       C  0.89033010  0.52604233  0.36833154     0.36380
H2221       H  0.89863244  0.94889947  0.35817276     0.16750
O2222       O  0.85574831  0.94244317  0.40017958    -0.60170
H2223       H  0.85824563  0.54712437  0.39952976     0.16770
O2224       O  0.90117530  0.55355913  0.35755145    -0.60270
H2225       H  0.91449638  0.56171912  0.37413615     0.43760
H2226       H  0.86840258  0.93729568  0.41838942     0.43720
C2227       C  0.64585984  0.00147183  0.40091958    -0.05350
C2228       C  0.65271771  0.51234259  0.37130128    -0.32770
C2229       C  0.63045403  0.51273348  0.34817221     0.36480
C2230       C  0.60039243  0.00209888  0.35425519    -0.05700
C2231       C  0.59330496  0.99175345  0.38404271    -0.32670
C2232       C  0.61561841  0.99144291  0.40724920     0.36380
H2233       H  0.67552969  0.52076819  0.36592243     0.16750
O2234       O  0.63819699  0.52450603  0.31996643    -0.60170
H2235       H  0.57047939  0.98329661  0.38931824     0.16770
O2236       O  0.60784665  0.98004553  0.43559345    -0.60270
H2237       H  0.59815063  0.99742417  0.44667217     0.43760
H2238       H  0.64900994  0.50766555  0.30909091     0.43720
C2239       C  0.64628289  0.49677944  0.10052700    -0.05350
C2240       C  0.61515544  0.49596052  0.09180908    -0.32770
C2241       C  0.59160730  0.99573244  0.11388333     0.36480
C2242       C  0.59885642  0.99611473  0.14555047    -0.05700
C2243       C  0.62996785  0.99654017  0.15414139    -0.32850
C2244       C  0.65340198  0.99705243  0.13223419     0.36380
H2245       H  0.60886515  0.49560380  0.06772237     0.16750
O2246       O  0.56169591  0.99470663  0.10408843    -0.60170
H2247       H  0.63648559  0.99682017  0.17816788     0.16770
O2248       O  0.68321599  0.99760722  0.14238775    -0.60270
H2249       H  0.68791927  0.01956887  0.14609550     0.43760
H2250       H  0.55631406  0.51625247  0.09930626     0.43720
C2251       C  0.89985010  0.50402517  0.14694050    -0.05350
C2252       C  0.90713713  0.99325655  0.11730485    -0.32770
C2253       C  0.88519804  0.99312999  0.09379439     0.36480
C2254       C  0.85512456  0.50369371  0.09968775    -0.05700
C2255       C  0.84816918  0.51536133  0.12902764    -0.32670
C2256       C  0.87011384  0.51564172  0.15245925     0.36380
H2257       H  0.92978926  0.98421468  0.11240201     0.16750
O2258       O  0.89307866  0.98122933  0.06564834    -0.60170
H2259       H  0.82549979  0.52434395  0.13397097     0.16770
O2260       O  0.86240294  0.52813778  0.18039818    -0.60270
H2261       H  0.85089863  0.51181425  0.19135217     0.43760
H2262       H  0.90315944  0.99833878  0.05450223     0.43720
C2263       C  0.00265048  0.59849894  0.35579917    -0.05350
C2264       C  0.51727990  0.62666900  0.35027546    -0.32770
C2265       C  0.51790611  0.64963815  0.37274247     0.36480
C2266       C  0.50354479  0.64483916  0.40144861    -0.05700
C2267       C  0.98944666  0.61641896  0.40726008    -0.32670
C2268       C  0.98901402  0.59332491  0.38480665     0.36380
H2269       H  0.52852866  0.63090886  0.32844233     0.16750
O2270       O  0.53358240  0.67629414  0.36674406    -0.60170
H2271       H  0.97810311  0.61227227  0.42906107     0.16770
O2272       O  0.97392563  0.56639045  0.39098851    -0.60270
H2273       H  0.98881775  0.55379847  0.40265894     0.43760
H2274       H  0.51949623  0.68873747  0.35395882     0.43720
C2275       C  0.50073376  0.90018424  0.35560218    -0.05350
C2276       C  0.50830444  0.86987113  0.34772272    -0.32770
C2277       C  0.50849452  0.84661618  0.36973255     0.36480
C2278       C  0.50098275  0.85322102  0.40065054    -0.05700
C2279       C  0.99396948  0.88367147  0.40874900    -0.32670
C2280       C  0.99393591  0.90703724  0.38665132     0.36380
H2281       H  0.51432402  0.86398172  0.32426030     0.16750
O2282       O  0.51705048  0.81768430  0.36076419    -0.60170
H2283       H  0.98812575  0.88945430  0.43228160     0.16770
O2284       O  0.98621505  0.93620492  0.39559647    -0.60270
H2285       H  0.00553271  0.94537502  0.40348896     0.43760
H2286       H  0.49832416  0.80839847  0.35167624     0.43720
C2287       C  0.00052003  0.85435181  0.09992537    -0.05350
C2288       C  0.98368645  0.84961577  0.12706554    -0.32770
C2289       C  0.98266762  0.87201552  0.15007144     0.36480
C2290       C  0.49876061  0.89982565  0.14630750    -0.05700
C2291       C  0.51519177  0.90487684  0.11892218    -0.32670
C2292       C  0.51614305  0.88241288  0.09580415     0.36380
H2293       H  0.97095490  0.82849656  0.13038451     0.16750
O2294       O  0.96483155  0.86699288  0.17561986    -0.60170
H2295       H  0.52791152  0.92602000  0.11571190     0.16770
O2296       O  0.53368142  0.88747325  0.07006223    -0.60270
H2297       H  0.52057294  0.89987078  0.05623759     0.43760
H2298       H  0.97730119  0.85360405  0.18910383     0.43720
C2299       C  0.99492301  0.59869103  0.14635478    -0.05350
C2300       C  0.99480032  0.62978593  0.15493191    -0.32770
C2301       C  0.99504049  0.65310369  0.13298900     0.36480
C2302       C  0.99525241  0.64586329  0.10128150    -0.05700
C2303       C  0.99438191  0.61475213  0.09259215    -0.32670
C2304       C  0.99424626  0.59133815  0.11467618     0.36380
H2305       H  0.99492507  0.63636988  0.17896265     0.16750
O2306       O  0.99495373  0.68292194  0.14309566    -0.60170
H2307       H  0.99406758  0.60836149  0.06850992     0.16770
O2308       O  0.99312541  0.56144408  0.10487485    -0.60270
H2309       H  0.01463222  0.55609853  0.09962770     0.43760
H2310       H  0.01682779  0.68805370  0.14690625     0.43720
O2311       O  0.91373604  0.50295088  0.69981100    -0.75170
O2312       O  0.95153486  0.50038757  0.66360509    -0.54080
C2313       C  0.92320671  0.50248261  0.67172127     0.78560
O2314       O  0.00230919  0.58487150  0.80303318    -0.59770
O2315       O  0.00046484  0.54678298  0.83881410    -0.52800
C2316       C  0.00171032  0.57515871  0.83100822     0.70570
O2317       O  0.99650577  0.58432768  0.69896671    -0.74330
O2318       O  0.49774653  0.54649308  0.66288624    -0.54890
C2319       C  0.99635534  0.57486515  0.67086071     0.76570
O2320       O  0.91421837  0.49839868  0.80377361    -0.59470
O2321       O  0.95291624  0.99887502  0.83924846    -0.52590
C2322       C  0.92444064  0.49842397  0.83153651     0.73170
Zr2323     Zr  0.93513553  0.49970216  0.75162128     2.54710
O2324       O  0.89666831  0.54007072  0.75384038    -0.80040
O2325       O  0.89609909  0.95963313  0.75064757    -0.93460
Zr2326     Zr  0.00012548  0.56371132  0.75097016     2.64680
O2327       O  0.96124572  0.60375984  0.75222958    -0.98410
O2328       O  0.54151704  0.60132807  0.74911324    -0.80470
O2329       O  0.96705800  0.53196677  0.72157263    -0.83830
O2330       O  0.96732860  0.53231185  0.78111988    -2.18540
O2331       O  0.49927407  0.91423648  0.80298571    -0.67220
O2332       O  0.00059190  0.95222635  0.83894311    -0.51790
C2333       C  0.50007027  0.92382410  0.83103499     0.71550
O2334       O  0.58446220  0.99604923  0.69812361    -0.60130
O2335       O  0.54650984  0.49839631  0.66234506    -0.52110
C2336       C  0.57494709  0.99674862  0.67010692     0.73350
O2337       O  0.58583573  0.00104169  0.80166056    -0.71520
O2338       O  0.54820652  0.00029588  0.83810035    -0.50200
C2339       C  0.57658871  0.00117891  0.82979818     0.74730
O2340       O  0.49874128  0.91365697  0.69896838    -0.66850
O2341       O  0.49949969  0.95161445  0.66296596    -0.54050
C2342       C  0.49899897  0.92324828  0.67096802     0.73120
Zr2343     Zr  0.49898852  0.93504928  0.75089153     2.77540
O2344       O  0.53807270  0.89518079  0.75035312    -0.97600
O2345       O  0.95772729  0.89729480  0.75118444    -0.78420
Zr2346     Zr  0.56392597  0.99932264  0.75012859     2.70070
O2347       O  0.60479671  0.96138299  0.75187941    -0.79670
O2348       O  0.60058049  0.54141376  0.74671457    -0.98750
Zr2349     Zr  0.49923397  0.49915391  0.69188396     2.21500
Zr2350     Zr  0.00020422  0.99941625  0.80985473     2.11130
O2351       O  0.53245931  0.96657352  0.78016835    -2.47440
O2352       O  0.53189126  0.96639160  0.72079690    -0.79460
O2353       O  0.96681964  0.96688194  0.78118190    -0.71660
O2354       O  0.53237248  0.53204628  0.72050718    -2.32620
O2355       O  0.96622809  0.96674822  0.72131352    -2.28820
O2356       O  0.53284939  0.53203304  0.78053456    -0.73420
H2357       H  0.95494751  0.54490554  0.79457043     0.78580
H2358       H  0.54486112  0.54443413  0.70697243     0.79670
H2359       H  0.54521490  0.95407124  0.79324797     0.81890
H2360       H  0.95343324  0.95431922  0.70809698     0.79500
H2361       H  0.55271498  0.59685067  0.72979248     0.42530
H2362       H  0.59673304  0.55392385  0.76534833     0.41500
H2363       H  0.59488310  0.94210261  0.74502047     0.41180
H2364       H  0.55170601  0.90017836  0.76786721     0.39110
H2365       H  0.94149650  0.90663278  0.76411802     0.42250
H2366       H  0.90085241  0.94726736  0.73213259     0.37030
H2367       H  0.90534291  0.55679645  0.74112472     0.43150
H2368       H  0.94808462  0.59867079  0.77009893     0.39560
H2369       H  0.52706514  0.87637242  0.75682592     0.44480
H2370       H  0.87684949  0.97049240  0.74544712     0.43200
H2371       H  0.97251825  0.62246895  0.75857419     0.43340
H2372       H  0.62080153  0.53175240  0.75038606     0.43700
O2373       O  0.99707079  0.69836515  0.58644243    -0.75170
O2374       O  0.49830493  0.66195436  0.54895140    -0.54080
C2375       C  0.99688047  0.67025717  0.57733266     0.78560
O2376       O  0.91562429  0.80195629  0.50011240    -0.59770
O2377       O  0.95381647  0.83767781  0.50024352    -0.52800
C2378       C  0.92533244  0.82991211  0.49998195     0.70570
O2379       O  0.91454372  0.69815020  0.50228202    -0.74330
O2380       O  0.95220998  0.66190209  0.50193687    -0.54890
C2381       C  0.92383957  0.67012590  0.50215576     0.76570
O2382       O  0.00061319  0.80187246  0.58633730    -0.59470
O2383       O  0.00208750  0.83747010  0.54799807    -0.52590
C2384       C  0.00133860  0.82971594  0.57650200     0.73170
Zr2385     Zr  0.00088173  0.74996468  0.56524704     2.54710
O2386       O  0.96264618  0.75150921  0.60610293    -0.80040
O2387       O  0.54283414  0.74907649  0.60221556    -0.93460
Zr2388     Zr  0.93607485  0.74984165  0.50128835     2.64680
O2389       O  0.89749550  0.75049745  0.54191552    -0.98410
O2390       O  0.89671652  0.74956139  0.96158633    -0.80470
O2391       O  0.96780701  0.72014184  0.53387823    -0.83830
O2392       O  0.96809077  0.77963627  0.53370943    -2.18540
O2393       O  0.58641404  0.80104560  0.50179423    -0.67220
O2394       O  0.54848737  0.83694455  0.49983017    -0.51790
C2395       C  0.57686232  0.82898859  0.00089790     0.71550
O2396       O  0.50297762  0.69735317  0.91536331    -0.60130
O2397       O  0.50055185  0.66154340  0.95340618    -0.52110
C2398       C  0.50239888  0.66945613  0.92497098     0.73350
O2399       O  0.49969874  0.80071695  0.91511464    -0.71520
O2400       O  0.00084561  0.83694715  0.95284015    -0.50200
C2401       C  0.50044086  0.82875992  0.92441384     0.74730
O2402       O  0.58553323  0.69749061  0.49886847    -0.66850
O2403       O  0.54776785  0.66140781  0.50101251    -0.54050
C2404       C  0.57622748  0.66948173  0.99987367     0.73120
Zr2405     Zr  0.56480607  0.74927772  0.50049240     2.77540
O2406       O  0.60426913  0.74967933  0.96072117    -0.97600
O2407       O  0.60293893  0.74746616  0.54129607    -0.78420
Zr2408     Zr  0.49997900  0.74905636  0.93647516     2.70070
O2409       O  0.53861571  0.75067812  0.89600505    -0.79670
O2410       O  0.95827320  0.74673066  0.89931269    -0.98750
Zr2411     Zr  0.50010500  0.69038731  0.50114359     2.21500
Zr2412     Zr  0.00089223  0.80835703  0.50049704     2.11130
O2413       O  0.53325253  0.77880344  0.96764411    -2.47440
O2414       O  0.53274268  0.71939027  0.96809611    -0.79460
O2415       O  0.53362012  0.77954462  0.53330637    -0.71660
O2416       O  0.96730437  0.71952065  0.96845387    -2.32620
O2417       O  0.53322871  0.71966182  0.53359359    -2.28820
O2418       O  0.96763387  0.77934308  0.96810993    -0.73420
H2419       H  0.95565452  0.79301063  0.54631649     0.78580
H2420       H  0.95467140  0.70624935  0.95591780     0.79670
H2421       H  0.54587870  0.79183700  0.95486971     0.81890
H2422       H  0.54573638  0.70642233  0.54617297     0.79500
H2423       H  0.90395706  0.73439712  0.94624609     0.42530
H2424       H  0.94457176  0.76390922  0.90507319     0.41500
H2425       H  0.55670023  0.74033278  0.90501398     0.41180
H2426       H  0.59945262  0.76771281  0.94782410     0.39110
H2427       H  0.59562122  0.76252450  0.55670891     0.42250
H2428       H  0.55290808  0.72897385  0.59911091     0.37030
H2429       H  0.94433210  0.74144682  0.59710445     0.43150
H2430       H  0.90275078  0.76854268  0.55473188     0.39560
H2431       H  0.62336355  0.75542372  0.97167329     0.44480
H2432       H  0.53253804  0.74728579  0.62245367     0.43200
H2433       H  0.87822874  0.75632739  0.53138657     0.43340
H2434       H  0.96777498  0.75322224  0.87966703     0.43700
O2435       O  0.80222751  0.58483742  0.50191448    -0.75170
O2436       O  0.83832440  0.54702457  0.50139184    -0.54080
C2437       C  0.83025714  0.57536544  0.50202933     0.78560
O2438       O  0.69892781  0.99763482  0.58583868    -0.59770
O2439       O  0.66276559  0.49800790  0.54817941    -0.52800
C2440       C  0.67085619  0.49748089  0.57662169     0.70570
O2441       O  0.80256701  0.00230727  0.58580938    -0.74330
O2442       O  0.83844889  0.00070613  0.54765814    -0.54890
C2443       C  0.83055222  0.50216054  0.57611856     0.76570
O2444       O  0.69818249  0.58413247  0.49966594    -0.59470
O2445       O  0.66235734  0.54605686  0.50044510    -0.52590
C2446       C  0.67014607  0.57450346  0.49997650     0.73170
Zr2447     Zr  0.75033298  0.56349475  0.50031336     2.54710
O2448       O  0.74910623  0.60246000  0.54044654    -0.80040
O2449       O  0.75077033  0.60209738  0.95993731    -0.93460
Zr2450     Zr  0.75076105  0.99923142  0.56473205     2.64680
O2451       O  0.75023225  0.53846314  0.60465894    -0.98410
O2452       O  0.75173336  0.95827367  0.60269945    -0.80470
O2453       O  0.78029052  0.53200061  0.53288039    -0.83830
O2454       O  0.72073652  0.53178728  0.53324551    -2.18540
O2455       O  0.69859525  0.50106267  0.91471639    -0.67220
O2456       O  0.66276611  0.49942836  0.95292873    -0.51790
C2457       C  0.67059191  0.00057396  0.92443752     0.71550
O2458       O  0.80244651  0.91423396  0.49757092    -0.60130
O2459       O  0.83860802  0.95190959  0.49992831    -0.52110
C2460       C  0.83048288  0.92353600  0.99867154     0.73350
O2461       O  0.69918295  0.91343207  0.50229400    -0.71520
O2462       O  0.66303196  0.95110449  0.50044133    -0.50200
C2463       C  0.67116931  0.92279737  0.00180043     0.74730
O2464       O  0.80266318  0.49754558  0.91422854    -0.66850
O2465       O  0.83843950  0.99898660  0.95264270    -0.54050
C2466       C  0.83050102  0.99797483  0.92423892     0.73120
Zr2467     Zr  0.75066466  0.49933490  0.93567516     2.77540
O2468       O  0.74965996  0.96012776  0.89573352    -0.97600
O2469       O  0.75220390  0.54065147  0.89815581    -0.78420
Zr2470     Zr  0.75077192  0.93510307  0.50036588     2.70070
O2471       O  0.74854918  0.89400114  0.96248907    -0.79670
O2472       O  0.75402988  0.89881179  0.54268013    -0.98750
Zr2473     Zr  0.80961501  0.99941406  0.50016499     2.21500
Zr2474     Zr  0.69160704  0.49887393  0.50043318     2.11130
O2475       O  0.72098157  0.96640267  0.96742108    -2.47440
O2476       O  0.78044728  0.96669413  0.96735739    -0.79460
O2477       O  0.72059263  0.53169263  0.96760188    -0.71660
O2478       O  0.78072907  0.96663737  0.53308264    -2.32620
O2479       O  0.78043392  0.53209054  0.96743674    -2.28820
O2480       O  0.72079002  0.96645980  0.53317580    -0.73420
H2481       H  0.70746665  0.54427980  0.54591448     0.78580
H2482       H  0.79411275  0.95417339  0.54555465     0.79670
H2483       H  0.70776406  0.95372461  0.95487348     0.81890
H2484       H  0.79372772  0.54467044  0.95487945     0.79500
H2485       H  0.76906591  0.94498037  0.59644512     0.42530
H2486       H  0.73590323  0.90334720  0.55568491     0.41500
H2487       H  0.75482883  0.90384731  0.94296985     0.41180
H2488       H  0.73199211  0.94682872  0.90107664     0.39110
H2489       H  0.73806996  0.55636439  0.90652109     0.42250
H2490       H  0.76937729  0.59760546  0.94761880     0.37030
H2491       H  0.75891447  0.59255312  0.55837374     0.43150
H2492       H  0.73125160  0.55034449  0.60094059     0.39560
H2493       H  0.74306815  0.97112458  0.87698128     0.44480
H2494       H  0.75562222  0.62151714  0.97074032     0.43200
H2495       H  0.74611770  0.52707563  0.62390783     0.43340
H2496       H  0.74940727  0.87866022  0.53321633     0.43700
C2497       C  0.90172546  0.85453287  0.49976139    -0.05350
C2498       C  0.87110161  0.84681532  0.50642267    -0.32770
C2499       C  0.84790653  0.86883607  0.50604093     0.36480
C2500       C  0.85486661  0.89969516  0.99895969    -0.05700
C2501       C  0.88555504  0.90761128  0.99256059    -0.32670
C2502       C  0.90887313  0.88544687  0.99301729     0.36380
H2503       H  0.86488849  0.82346372  0.51223032     0.16750
O2504       O  0.81865021  0.85992156  0.51374810    -0.60170
H2505       H  0.89157376  0.93106321  0.98696236     0.16770
O2506       O  0.93832721  0.89422199  0.98597350    -0.60270
H2507       H  0.94701359  0.90215477  0.00551036     0.43760
H2508       H  0.80987729  0.85104953  0.49465753     0.43720
C2509       C  0.90004331  0.64573418  0.50200721    -0.05350
C2510       C  0.90627397  0.61691626  0.51501074    -0.32770
C2511       C  0.88392238  0.59368241  0.51522406     0.36480
C2512       C  0.85470957  0.59907273  0.50229770    -0.05700
C2513       C  0.84864356  0.62780391  0.98918309    -0.32670
C2514       C  0.87088159  0.65094098  0.98894134     0.36380
H2515       H  0.92839653  0.61249516  0.52547083     0.16750
O2516       O  0.89043501  0.56634978  0.52932022    -0.60170
H2517       H  0.82658735  0.63232229  0.97862215     0.16770
O2518       O  0.86424147  0.67812848  0.97462618    -0.60270
H2519       H  0.85219473  0.69008702  0.98984915     0.43760
H2520       H  0.90202436  0.55428156  0.51383403     0.43720
C2521       C  0.60037870  0.85356836  0.00141826    -0.05350
C2522       C  0.62850215  0.84815828  0.51615139    -0.32770
C2523       C  0.65148648  0.87057328  0.51680468     0.36480
C2524       C  0.64669026  0.89916223  0.00249512    -0.05700
C2525       C  0.61839632  0.90478532  0.98808723    -0.32670
C2526       C  0.59534636  0.88231256  0.98746119     0.36380
H2527       H  0.63266548  0.82648045  0.52752310     0.16750
O2528       O  0.67811677  0.86466666  0.53252430    -0.60170
H2529       H  0.61433227  0.92644901  0.97666301     0.16770
O2530       O  0.56865181  0.88816896  0.97183262    -0.60270
H2531       H  0.55572949  0.90006378  0.98636599     0.43760
H2532       H  0.69072197  0.85200192  0.51837001     0.43720
C2533       C  0.64546853  0.59816274  0.50006299    -0.05350
C2534       C  0.65351527  0.62897093  0.50512011    -0.32770
C2535       C  0.63145344  0.65216176  0.50508382     0.36480
C2536       C  0.60015913  0.64506040  0.99998860    -0.05700
C2537       C  0.59194291  0.61419491  0.99516151    -0.32670
C2538       C  0.61415451  0.59088707  0.99527294     0.36380
H2539       H  0.67719449  0.63537259  0.50934579     0.16750
O2540       O  0.64087437  0.68162131  0.51102380    -0.60170
H2541       H  0.56818417  0.60799123  0.99109336     0.16770
O2542       O  0.60494854  0.56126244  0.98989302    -0.60270
H2543       H  0.59836480  0.55330948  0.01021948     0.43760
H2544       H  0.64843631  0.68959945  0.49104789     0.43720
C2545       C  0.90158041  0.49830080  0.85632753    -0.05350
C2546       C  0.89001601  0.97036137  0.86732130    -0.32770
C2547       C  0.86702093  0.96997231  0.88989828     0.36480
C2548       C  0.85523517  0.99774941  0.90133467    -0.05700
C2549       C  0.86714569  0.52564759  0.89068972    -0.32670
C2550       C  0.89033011  0.52604231  0.86833153     0.36380
H2551       H  0.89863237  0.94889948  0.85817270     0.16750
O2552       O  0.85574826  0.94244317  0.90017953    -0.60170
H2553       H  0.85824563  0.54712436  0.89952975     0.16770
O2554       O  0.90117532  0.55355912  0.85755145    -0.60270
H2555       H  0.91449644  0.56171907  0.87413612     0.43760
H2556       H  0.86840249  0.93729567  0.91838939     0.43720
C2557       C  0.64585985  0.00147183  0.90091959    -0.05350
C2558       C  0.65271770  0.51234258  0.87130127    -0.32770
C2559       C  0.63045402  0.51273347  0.84817220     0.36480
C2560       C  0.60039244  0.00209889  0.85425520    -0.05700
C2561       C  0.59330498  0.99175343  0.88404271    -0.32670
C2562       C  0.61561843  0.99144290  0.90724920     0.36380
H2563       H  0.67552968  0.52076819  0.86592241     0.16750
O2564       O  0.63819697  0.52450603  0.81996642    -0.60170
H2565       H  0.57047941  0.98329658  0.88931823     0.16770
O2566       O  0.60784667  0.98004550  0.93559344    -0.60270
H2567       H  0.59815064  0.99742413  0.94667217     0.43760
H2568       H  0.64900993  0.50766555  0.80909090     0.43720
C2569       C  0.64628291  0.49677947  0.60052702    -0.05350
C2570       C  0.61515547  0.49596029  0.59180910    -0.32770
C2571       C  0.59160729  0.99573253  0.61388333     0.36480
C2572       C  0.59885641  0.99611475  0.64555046    -0.05700
C2573       C  0.62996785  0.99654013  0.65414139    -0.32850
C2574       C  0.65340198  0.99705239  0.63223419     0.36380
H2575       H  0.60886518  0.49560335  0.56772239     0.16750
O2576       O  0.56169591  0.99470679  0.60408843    -0.60170
H2577       H  0.63648559  0.99682009  0.67816787     0.16770
O2578       O  0.68321599  0.99760711  0.64238775    -0.60270
H2579       H  0.68791930  0.01956875  0.64609554     0.43760
H2580       H  0.55631392  0.51625189  0.59930618     0.43720
C2581       C  0.89985011  0.50402515  0.64694051    -0.05350
C2582       C  0.90713713  0.99325655  0.61730484    -0.32770
C2583       C  0.88519804  0.99312998  0.59379438     0.36480
C2584       C  0.85512457  0.50369368  0.59968775    -0.05700
C2585       C  0.84816919  0.51536130  0.62902765    -0.32670
C2586       C  0.87011385  0.51564169  0.65245926     0.36380
H2587       H  0.92978926  0.98421467  0.61240200     0.16750
O2588       O  0.89307865  0.98122931  0.56564833    -0.60170
H2589       H  0.82549980  0.52434392  0.63397097     0.16770
O2590       O  0.86240294  0.52813775  0.68039819    -0.60270
H2591       H  0.85089863  0.51181421  0.69135218     0.43760
H2592       H  0.90315944  0.99833876  0.55450221     0.43720
C2593       C  0.00265052  0.59849893  0.85579918    -0.05350
C2594       C  0.51727993  0.62666899  0.85027548    -0.32770
C2595       C  0.51790614  0.64963814  0.87274249     0.36480
C2596       C  0.50354478  0.64483916  0.90144861    -0.05700
C2597       C  0.98944673  0.61641894  0.90726010    -0.32670
C2598       C  0.98901407  0.59332489  0.88480667     0.36380
H2599       H  0.52852872  0.63090884  0.82844236     0.16750
O2600       O  0.53358246  0.67629411  0.86674410    -0.60170
H2601       H  0.97810319  0.61227224  0.92906109     0.16770
O2602       O  0.97392570  0.56639042  0.89098853    -0.60270
H2603       H  0.98881783  0.55379844  0.90265894     0.43760
H2604       H  0.51949631  0.68873746  0.85395885     0.43720
C2605       C  0.50073374  0.90018424  0.85560219    -0.05350
C2606       C  0.50830441  0.86987112  0.84772272    -0.32770
C2607       C  0.50849446  0.84661618  0.86973255     0.36480
C2608       C  0.50098269  0.85322101  0.90065054    -0.05700
C2609       C  0.99396947  0.88367145  0.90874900    -0.32670
C2610       C  0.99393588  0.90703723  0.88665132     0.36380
H2611       H  0.51432398  0.86398171  0.82426031     0.16750
O2612       O  0.51705040  0.81768429  0.86076420    -0.60170
H2613       H  0.98812576  0.88945429  0.93228160     0.16770
O2614       O  0.98621502  0.93620491  0.89559647    -0.60270
H2615       H  0.00553268  0.94537501  0.90348896     0.43760
H2616       H  0.49832408  0.80839847  0.85167624     0.43720
C2617       C  0.00052005  0.85435182  0.59992537    -0.05350
C2618       C  0.98368646  0.84961578  0.62706553    -0.32770
C2619       C  0.98266762  0.87201554  0.65007143     0.36480
C2620       C  0.49876061  0.89982564  0.64630751    -0.05700
C2621       C  0.51519178  0.90487684  0.61892219    -0.32670
C2622       C  0.51614305  0.88241287  0.59580416     0.36380
H2623       H  0.97095490  0.82849658  0.63038451     0.16750
O2624       O  0.96483154  0.86699290  0.67561984    -0.60170
H2625       H  0.52791153  0.92602000  0.61571191     0.16770
O2626       O  0.53368142  0.88747325  0.57006224    -0.60270
H2627       H  0.52057294  0.89987079  0.55623760     0.43760
H2628       H  0.97730117  0.85360407  0.68910382     0.43720
C2629       C  0.99492299  0.59869103  0.64635478    -0.05350
C2630       C  0.99480038  0.62978594  0.65493191    -0.32770
C2631       C  0.99504056  0.65310369  0.63298900     0.36480
C2632       C  0.99525240  0.64586330  0.60128150    -0.05700
C2633       C  0.99438182  0.61475213  0.59259215    -0.32670
C2634       C  0.99424616  0.59133816  0.61467618     0.36380
H2635       H  0.99492520  0.63636989  0.67896265     0.16750
O2636       O  0.99495391  0.68292195  0.64309566    -0.60170
H2637       H  0.99406742  0.60836150  0.56850993     0.16770
O2638       O  0.99312523  0.56144409  0.60487485    -0.60270
H2639       H  0.01463202  0.55609847  0.59962772     0.43760
H2640       H  0.01682799  0.68805366  0.64690619     0.43720
loop_ 
_geom_bond_atom_site_label_1 
_geom_bond_atom_site_label_2 
_geom_bond_distance 
_geom_bond_site_symmetry_2 
_ccdc_geom_bond_type 
O1          Zr13   2.444   1_545  S
O1            C3   1.289       .  A
O2        Zr1359   2.416   1_545  S
O2            C3   1.286       .  A
C3          C271   1.485       .  S
O4          Zr16   2.445       .  S
O4            C6   1.289       .  A
O5         Zr700   2.417   1_545  S
O5            C6   1.285       .  A
C6          C283   1.482       .  S
O7          Zr16   2.441       .  S
O7            C9   1.289       .  A
O8          Zr39   2.423   1_545  S
O8         C1329   1.286       .  A
C9         O1328   1.286       .  A
C9          C319   1.492       .  S
O10         Zr13   2.443       .  S
O10          C12   1.288       .  A
O11         Zr40   2.421       .  S
O11         C672   1.285       .  A
C12         O671   1.285       .  A
C12         C235   1.466       .  S
Zr13         O14   2.434   1_565  S
Zr13        O675   2.435       .  S
Zr13         O19   2.369   1_565  S
Zr13         O20   2.371   1_565  S
Zr13        O703   2.372       .  S
Zr13        O705   2.372       .  S
O14          H57   0.990       .  S
O15        Zr673   2.435       .  S
O15          H56   0.990       .  S
O15          H60   0.990       .  S
Zr16         O17   2.435       .  S
Zr16       O1338   2.436       .  S
Zr16         O20   2.372       .  S
Zr16         O19   2.369       .  S
Zr16       O1364   2.372       .  S
Zr16       O1366   2.369       .  S
O17          H58   0.990       .  S
O17          H61   0.990       .  S
O18       Zr1336   2.436       .  S
O18          H51   0.990       .  S
O19       Zr1359   2.381   1_545  S
O20        Zr700   2.386   1_545  S
O20          H47   0.966       .  S
O21         Zr33   2.443       .  S
O21          C23   1.289   1_655  A
O22         Zr40   2.418       .  S
O22        C1343   1.285       .  A
C23        O1342   1.285       .  A
C23         C295   1.487       .  S
O24         Zr36   2.435       .  S
O24          C26   1.288       .  A
O25         Zr39   2.424   1_455  S
O25         C686   1.286       .  A
C26         O685   1.286       .  A
C26         C262   1.490       .  S
O27         Zr36   2.438       .  S
O27          C29   1.288       .  A
O28       Zr1360   2.426       .  S
O28          C29   1.287       .  A
C29         C250   1.487       .  S
O30         Zr33   2.441       .  S
O30          C32   1.288       .  A
O31        Zr699   2.423       .  S
O31          C32   1.286       .  A
C32         C310   1.480       .  S
Zr33         O34   2.435   1_655  S
Zr33       O1355   2.434       .  S
Zr33         O41   2.372   1_655  S
Zr33         O42   2.372   1_655  S
Zr33       O1365   2.371       .  S
Zr33       O1363   2.370       .  S
O34          H54   0.990       .  S
O34          H59   0.990       .  S
O35       Zr1353   2.434       .  S
O35          H55   0.990       .  S
Zr36         O37   2.434       .  S
Zr36        O698   2.434       .  S
Zr36         O42   2.372       .  S
Zr36         O41   2.370       .  S
Zr36        O706   2.368       .  S
Zr36        O704   2.368       .  S
O37          H53   0.990       .  S
O38        Zr696   2.434   1_545  S
O38          H52   0.990       .  S
O38          H62   0.990       .  S
Zr39       O1322   2.416   1_565  S
Zr39        O691   2.423       .  S
Zr39         O44   2.383   1_665  S
Zr39       O1339   2.381   1_565  S
Zr39        O702   2.381   1_655  S
Zr39       O2025   2.386       .  S
Zr40        O665   2.417       .  S
Zr40       O1348   2.426       .  S
Zr40         O43   2.381       .  S
Zr40        O680   2.386       .  S
Zr40       O1361   2.384       .  S
Zr40       O2026   2.380       .  S
O41       Zr1360   2.384       .  S
O41          H49   0.966       .  S
O42        Zr699   2.381   1_455  S
O43        Zr673   2.372       .  S
O43       Zr1353   2.370       .  S
O44       Zr1336   2.372       .  S
O44        Zr696   2.368   1_545  S
O44          H48   0.966       .  S
O45        Zr673   2.372       .  S
O45       Zr1353   2.371       .  S
O45       Zr2019   2.386       .  S
O45          H50   0.966       .  S
O46       Zr1336   2.369       .  S
O46        Zr696   2.368   1_545  S
O46       Zr2020   2.380   1_545  S
O63         Zr75   2.439       .  S
O63          C65   1.288       .  A
O64        Zr101   2.424   1_655  S
O64        C1385   1.287       .  A
C65        O1384   1.287       .  A
C65         C322   1.492       .  S
O66         Zr78   2.443       .  S
O66          C68   1.290   1_554  A
O67        Zr102   2.418       .  S
O67          C68   1.285   1_554  A
C68         C187   1.488       .  S
O69         Zr78   2.440       .  S
O69          C71   1.288       .  A
O70       Zr1421   2.425       .  S
O70          C71   1.287       .  A
C71         C199   1.483       .  S
O72         Zr75   2.441       .  S
O72          C74   1.289       .  A
O73        Zr102   2.423       .  S
O73          C74   1.286       .  A
C74         C307   1.479       .  S
Zr75         O76   2.433       .  S
Zr75       O1397   2.436       .  S
Zr75         O81   2.370       .  S
Zr75         O82   2.370       .  S
Zr75       O1425   2.370       .  S
Zr75       O1427   2.370       .  S
O76         H119   0.990       .  S
O77       Zr1395   2.436       .  S
O77         H118   0.990       .  S
O77         H122   0.990       .  S
Zr78         O79   2.436       .  S
Zr78        O410   2.435   1_554  S
Zr78         O82   2.369       .  S
Zr78         O81   2.370       .  S
Zr78        O436   2.372   1_554  S
Zr78        O438   2.370   1_554  S
O79         H120   0.990       .  S
O79         H123   0.990       .  S
O80        Zr408   2.435       .  S
O80         H113   0.990       .  S
O81       Zr1421   2.383       .  S
O82        Zr102   2.385       .  S
O82         H109   0.966       .  S
O83         Zr95   2.445       .  S
O83         C415   1.289       .  A
O84       Zr1422   2.416   1_556  S
O84         C415   1.285   1_556  A
C85         O413   1.289       .  A
C85         O414   1.285       .  A
C85         C211   1.481       .  S
O86         Zr98   2.437   1_455  S
O86          C88   1.288       .  A
O87        Zr431   2.425       .  S
O87          C88   1.287       .  A
C88         C286   1.482       .  S
O89         Zr98   2.439       .  S
O89          C91   1.288   1_655  A
O90        Zr432   2.421       .  S
O90        C1411   1.286       .  A
C91        O1410   1.286       .  A
C91         C298   1.487       .  S
O92         Zr95   2.435   1_556  S
O92         C424   1.287       .  A
O93        Zr101   2.432       .  S
O93         C424   1.288   1_554  A
C94         O422   1.287       .  A
C94         O423   1.288       .  A
C94         C226   1.492       .  S
Zr95         O97   2.434       .  S
Zr95        O426   2.436   1_554  S
Zr95        O107   2.372       .  S
Zr95        O105   2.370       .  S
Zr95        O433   2.368   1_554  S
Zr95        O434   2.371   1_554  S
O96        Zr425   2.436       .  S
O96         H116   0.990       .  S
O96         H121   0.990       .  S
O97         H117   0.990       .  S
Zr98         O99   2.433   1_655  S
Zr98       O1420   2.435       .  S
Zr98        O104   2.371   1_655  S
Zr98        O103   2.369   1_655  S
Zr98       O1428   2.369       .  S
Zr98       O1426   2.369       .  S
O99         H115   0.990       .  S
O100      Zr1418   2.435       .  S
O100        H114   0.990       .  S
O100        H124   0.990       .  S
Zr101      O1390   2.425   1_455  S
Zr101       O417   2.425   1_554  S
Zr101       O107   2.386       .  S
Zr101      O1401   2.383   1_455  S
Zr101       O434   2.383   1_554  S
Zr101      O1756   2.387   1_454  S
Zr102      O1404   2.416   1_554  S
Zr102       O420   2.421   1_554  S
Zr102      O1753   2.383   1_554  S
Zr102      O1425   2.381       .  S
Zr102       O438   2.382   1_554  S
O103       Zr425   2.368       .  S
O103      Zr1752   2.383       .  S
O103        H111   0.966       .  S
O104       Zr425   2.371       .  S
O104       Zr431   2.383       .  S
O105      Zr1395   2.370       .  S
O105      Zr1422   2.381       .  S
O106       Zr408   2.372       .  S
O106      Zr1418   2.369       .  S
O106      Zr1751   2.387       .  S
O106        H110   0.966       .  S
O107      Zr1395   2.370       .  S
O107        H112   0.966       .  S
O108       Zr408   2.370       .  S
O108      Zr1418   2.369       .  S
O108       Zr432   2.382       .  S
O125       Zr137   2.443       .  S
O125        C127   1.289       .  A
O126       Zr823   2.422   1_545  S
O126        C127   1.286       .  A
C127        C202   1.483       .  S
O128       Zr140   2.436       .  S
O128        C790   1.287       .  A
O129       Zr164   2.425       .  S
O129        C130   1.287       .  A
C130        O788   1.287       .  A
C130        C259   1.491       .  S
O131       Zr140   2.439       .  S
O131        C793   1.288       .  A
O132       Zr163   2.419       .  S
O132        C793   1.285       .  A
C133        O791   1.288       .  A
C133        O792   1.285       .  A
C133        C274   1.484       .  S
O134       Zr137   2.444   1_556  S
O134        C136   1.290       .  A
O135       Zr164   2.422   1_545  S
O135        C136   1.286   1_554  A
C136        C223   1.491   1_556  S
Zr137       O138   2.434       .  S
Zr137       O469   2.435   1_554  S
Zr137       O143   2.370       .  S
Zr137       O144   2.370       .  S
Zr137       O497   2.369   1_554  S
Zr137       O499   2.373   1_554  S
O138        H181   0.990       .  S
O139       Zr467   2.435       .  S
O139        H180   0.990       .  S
O139        H184   0.990       .  S
Zr140       O142   2.436       .  S
Zr140       O801   2.435       .  S
Zr140       O168   2.369       .  S
Zr140       O170   2.370       .  S
Zr140       O804   2.371       .  S
Zr140       O803   2.368       .  S
O141       Zr800   2.435   1_545  S
O141        H182   0.990       .  S
O141        H185   0.990       .  S
O142        H175   0.990       .  S
O143       Zr800   2.368   1_545  S
O143       Zr823   2.380   1_545  S
O144       Zr164   2.386   1_545  S
O144       Zr800   2.371   1_545  S
O144        H171   0.966       .  S
O145       Zr157   2.446   1_545  S
O145        C807   1.290       .  A
O146       Zr494   2.420       .  S
O146        C807   1.286   1_565  A
C147        O805   1.290       .  A
C147        O806   1.286       .  A
C147        C247   1.487       .  S
O148       Zr160   2.431   1_556  S
O148        C480   1.286       .  A
O149       Zr163   2.428   1_556  S
O149        C480   1.287       .  A
C150        O478   1.286       .  A
C150        O479   1.287       .  A
C150        C190   1.488       .  S
O151       Zr160   2.436       .  S
O151        C483   1.287       .  A
O152       Zr824   2.424       .  S
O152        C483   1.287       .  A
C153        O481   1.287       .  A
C153        O482   1.287       .  A
C153        C214   1.481       .  S
O154       Zr157   2.448       .  S
O154        C816   1.289       .  A
O155       Zr493   2.416       .  S
O155        C156   1.284       .  A
C156        O814   1.289       .  A
C156        C238   1.466       .  S
Zr157       O159   2.434   1_565  S
Zr157       O818   2.435       .  S
Zr157       O169   2.370   1_565  S
Zr157       O167   2.372   1_565  S
Zr157       O825   2.374       .  S
Zr157       O826   2.373       .  S
O158       Zr817   2.435       .  S
O158        H178   0.990       .  S
O158        H183   0.990       .  S
O159        H179   0.990       .  S
Zr160       O162   2.434       .  S
Zr160       O491   2.434   1_554  S
Zr160       O170   2.367       .  S
Zr160       O168   2.368       .  S
Zr160       O496   2.371   1_554  S
Zr160       O495   2.371   1_554  S
O161       Zr490   2.434       .  S
O161        H177   0.990       .  S
O162        H176   0.990       .  S
O162        H186   0.990       .  S
Zr163       O786   2.422       .  S
Zr163       O485   2.416   1_554  S
Zr163       O168   2.381       .  S
Zr163       O803   2.380       .  S
Zr163       O496   2.382   1_554  S
Zr163      O1159   2.386   1_554  S
Zr164       O476   2.420   1_554  S
Zr164       O812   2.424       .  S
Zr164      O1155   2.386   1_554  S
Zr164       O497   2.382   1_564  S
Zr164       O830   2.380       .  S
O165       Zr817   2.374       .  S
O165       Zr490   2.371       .  S
O165      Zr1154   2.386       .  S
O165        H173   0.966       .  S
O166       Zr817   2.373       .  S
O166       Zr490   2.371       .  S
O166       Zr493   2.382       .  S
O167       Zr467   2.369       .  S
O167       Zr494   2.382   1_545  S
O168        H172   0.966       .  S
O169       Zr467   2.373       .  S
O169      Zr1153   2.386   1_545  S
O169        H174   0.966       .  S
O170       Zr824   2.380       .  S
C187        C188   1.404   1_556  A
C187        C522   1.414       .  A
C188        C189   1.395       .  A
C188        H193   1.083       .  S
C189        C520   1.413   1_554  A
C189        O194   1.372       .  S
C190        C191   1.407       .  A
C190        C519   1.413       .  A
C191        C192   1.403       .  A
C191        H195   1.083       .  S
C192        C517   1.414       .  A
C192        O196   1.372       .  S
O194        H198   0.992   1_554  S
O196        H197   0.992       .  S
C199        C200   1.406       .  A
C199        C534   1.411   1_554  A
C200        C201   1.403       .  A
C200        H205   1.084       .  S
C201        C202   1.412       .  A
C201        O206   1.372       .  S
C202        C533   1.404   1_554  A
C203        C204   1.397       .  A
C203        C532   1.404       .  A
C203        H207   1.084       .  S
C204        C529   1.411       .  A
C204        O208   1.372       .  S
O206        H210   0.992       .  S
O208        H209   0.992       .  S
C211        C216   1.412       .  A
C211        C542   1.404       .  A
C212        C213   1.398       .  A
C212        C541   1.404       .  A
C212        H217   1.084       .  S
C213        C544   1.411       .  A
C213        O218   1.372       .  S
C214        C215   1.405       .  A
C214        C543   1.411       .  A
C215        C216   1.402       .  A
C215        H219   1.083       .  S
C216        O220   1.372       .  S
O218        H222   0.992       .  S
O220        H221   0.992       .  S
C223        C224   1.405       .  A
C223        C558   1.415   1_554  A
C224        C225   1.396       .  A
C224        H229   1.083       .  S
C225        C556   1.414   1_554  A
C225        O230   1.372       .  S
C226        C227   1.408       .  A
C226        C555   1.414       .  A
C227        C228   1.404       .  A
C227        H231   1.083       .  S
C228        C553   1.415       .  A
C228        O232   1.372       .  S
O230        H234   0.992   1_554  S
O232        H233   0.992       .  S
C235        C240   1.405   1_565  A
C235        C896   1.402       .  A
C236        C237   1.401       .  A
C236        C895   1.402       .  A
C236        H241   1.084       .  S
C237        C238   1.406       .  A
C237        O242   1.372       .  S
C238        C899   1.401       .  A
C239        C240   1.400       .  A
C239        C898   1.401   1_545  A
C239        H243   1.084       .  S
C240        O244   1.372       .  S
O242        H246   0.992       .  S
O244        H245   0.991       .  S
C247        C252   1.413       .  A
C247        C908   1.405       .  A
C248        C249   1.398       .  A
C248        C907   1.405       .  A
C248        H253   1.084       .  S
C249        C910   1.412       .  A
C249        O254   1.372       .  S
C250        C251   1.406       .  A
C250        C909   1.412       .  A
C251        C252   1.402       .  A
C251        H255   1.084       .  S
C252        O256   1.372       .  S
O254        H258   0.992       .  S
O256        H257   0.992       .  S
C259        C260   1.408       .  A
C259        C924   1.414       .  A
C260        C921   1.403       .  A
C260        H265   1.083       .  S
C261        C262   1.414       .  A
C261        C920   1.403       .  A
C261        O266   1.371       .  S
C262        C263   1.406       .  A
C263        C264   1.395       .  A
C263        H267   1.083       .  S
C264        C919   1.414       .  A
C264        O268   1.372       .  S
O266        H930   0.992       .  S
O268        H269   0.992       .  S
H270        O926   0.992   1_545  S
C271        C276   1.411       .  A
C271        C932   1.407   1_545  A
C272        C273   1.400       .  A
C272        C931   1.407       .  A
C272        H277   1.084       .  S
C273        C934   1.412       .  A
C273        O278   1.372       .  S
C274        C275   1.405       .  A
C274        C933   1.412   1_545  A
C275        C276   1.398       .  A
C275        H279   1.084       .  S
C276        O280   1.372       .  S
O278        H282   0.992       .  S
O280        H281   0.992       .  S
C283        C288   1.412       .  A
C283       C1604   1.404       .  A
C284        C285   1.398       .  A
C284       C1603   1.404       .  A
C284        H289   1.084       .  S
C285        C286   1.411       .  A
C285        O290   1.372       .  S
C286       C1607   1.405   1_455  A
C287        C288   1.401       .  A
C287       C1606   1.405       .  A
C287        H291   1.084       .  S
C288        O292   1.372       .  S
O290        H294   0.992       .  S
O292        H293   0.992       .  S
C295        C296   1.405       .  A
C295       C1620   1.413   1_455  A
C296        C297   1.396       .  A
C296        H301   1.084       .  S
C297        C298   1.412       .  A
C297        O302   1.372       .  S
C298       C1619   1.407   1_455  A
C299        C300   1.402       .  A
C299       C1618   1.407       .  A
C299        H303   1.083       .  S
C300       C1615   1.413       .  A
C300        O304   1.372       .  S
O302        H306   0.992   1_455  S
O304        H305   0.992       .  S
C307        C308   1.404       .  A
C307       C1632   1.411       .  A
C308        C309   1.398       .  A
C308        H313   1.084       .  S
C309       C1630   1.409       .  A
C309        O314   1.372       .  S
C310        C311   1.406   1_655  A
C310       C1629   1.409       .  A
C311        C312   1.403       .  A
C311        H315   1.084       .  S
C312       C1627   1.411       .  A
C312        O316   1.372       .  S
O314        H318   0.992       .  S
O316        H317   0.992       .  S
C319        C320   1.406       .  A
C319        C324   1.414       .  A
C320        C321   1.396       .  A
C320        H325   1.083       .  S
C321        C322   1.414       .  A
C321        O326   1.372       .  S
C322        C323   1.408       .  A
C323        C324   1.403       .  A
C323        H327   1.083       .  S
C324        O328   1.372       .  S
O326        H330   0.992       .  S
O328        H329   0.991       .  S
O331       Zr343   2.444   1_545  S
O331        C333   1.289       .  A
O332      Zr1689   2.416   1_545  S
O332        C333   1.286       .  A
C333        C601   1.485       .  S
O334       Zr346   2.445       .  S
O334        C336   1.289       .  A
O335      Zr1030   2.417   1_545  S
O335        C336   1.285       .  A
C336        C613   1.482       .  S
O337       Zr346   2.441       .  S
O337        C339   1.289       .  A
O338       Zr369   2.423   1_545  S
O338       C1659   1.286       .  A
C339       O1658   1.286       .  A
C339        C649   1.492       .  S
O340       Zr343   2.443       .  S
O340        C342   1.288       .  A
O341       Zr370   2.421       .  S
O341       C1002   1.285       .  A
C342       O1001   1.285       .  A
C342        C565   1.466       .  S
Zr343       O344   2.434   1_565  S
Zr343      O1005   2.435       .  S
Zr343       O349   2.369   1_565  S
Zr343       O350   2.371   1_565  S
Zr343      O1033   2.372       .  S
Zr343      O1035   2.372       .  S
O344        H387   0.990       .  S
O345      Zr1003   2.435       .  S
O345        H386   0.990       .  S
O345        H390   0.990       .  S
Zr346       O347   2.435       .  S
Zr346      O1668   2.436       .  S
Zr346       O350   2.372       .  S
Zr346       O349   2.369       .  S
Zr346      O1694   2.372       .  S
Zr346      O1696   2.369       .  S
O347        H388   0.990       .  S
O347        H391   0.990       .  S
O348      Zr1666   2.436       .  S
O348        H381   0.990       .  S
O349      Zr1689   2.381   1_545  S
O350      Zr1030   2.386   1_545  S
O350        H377   0.966       .  S
O351       Zr363   2.443       .  S
O351        C353   1.289   1_655  A
O352       Zr370   2.418       .  S
O352       C1673   1.285       .  A
C353       O1672   1.285       .  A
C353        C625   1.487       .  S
O354       Zr366   2.435       .  S
O354        C356   1.288       .  A
O355       Zr369   2.424   1_455  S
O355       C1016   1.286       .  A
C356       O1015   1.286       .  A
C356        C592   1.490       .  S
O357       Zr366   2.438       .  S
O357        C359   1.288       .  A
O358      Zr1690   2.426       .  S
O358        C359   1.287       .  A
C359        C580   1.487       .  S
O360       Zr363   2.441       .  S
O360        C362   1.288       .  A
O361      Zr1029   2.423       .  S
O361        C362   1.286       .  A
C362        C640   1.480       .  S
Zr363       O364   2.435   1_655  S
Zr363      O1685   2.434       .  S
Zr363       O371   2.372   1_655  S
Zr363       O372   2.372   1_655  S
Zr363      O1695   2.371       .  S
Zr363      O1693   2.370       .  S
O364        H384   0.990       .  S
O364        H389   0.990       .  S
O365      Zr1683   2.434       .  S
O365        H385   0.990       .  S
Zr366       O367   2.434       .  S
Zr366      O1028   2.434       .  S
Zr366       O372   2.372       .  S
Zr366       O371   2.370       .  S
Zr366      O1036   2.368       .  S
Zr366      O1034   2.368       .  S
O367        H383   0.990       .  S
O368      Zr1026   2.434   1_545  S
O368        H382   0.990       .  S
O368        H392   0.990       .  S
Zr369      O1652   2.416   1_565  S
Zr369      O1021   2.423       .  S
Zr369      O1669   2.381   1_565  S
Zr369      O1032   2.381   1_655  S
Zr369       O374   2.383   1_665  S
Zr369      O2355   2.386       .  S
Zr370       O995   2.417       .  S
Zr370      O1678   2.426       .  S
Zr370      O1010   2.386       .  S
Zr370      O1691   2.384       .  S
Zr370       O373   2.381       .  S
Zr370      O2356   2.380       .  S
O371      Zr1690   2.384       .  S
O371        H379   0.966       .  S
O372      Zr1029   2.381   1_455  S
O373      Zr1003   2.372       .  S
O373      Zr1683   2.370       .  S
O374      Zr1666   2.372       .  S
O374      Zr1026   2.368   1_545  S
O374        H378   0.966       .  S
O375      Zr1003   2.372       .  S
O375      Zr1683   2.371       .  S
O375      Zr2349   2.386       .  S
O375        H380   0.966       .  S
O376      Zr1666   2.369       .  S
O376      Zr1026   2.368   1_545  S
O376      Zr2350   2.380   1_545  S
O393       Zr405   2.439       .  S
O393        C395   1.288       .  A
O394       Zr431   2.424   1_655  S
O394       C1715   1.287       .  A
C395       O1714   1.287       .  A
C395        C652   1.492       .  S
O396       Zr408   2.443       .  S
O396        C398   1.290       .  A
O397       Zr432   2.418       .  S
O397        C398   1.285       .  A
C398        C517   1.488       .  S
O399       Zr408   2.440       .  S
O399        C401   1.288       .  A
O400      Zr1751   2.425       .  S
O400        C401   1.287       .  A
C401        C529   1.483       .  S
O402       Zr405   2.441       .  S
O402        C404   1.289       .  A
O403       Zr432   2.423       .  S
O403        C404   1.286       .  A
C404        C637   1.479       .  S
Zr405       O406   2.433       .  S
Zr405      O1727   2.436       .  S
Zr405       O411   2.370       .  S
Zr405       O412   2.370       .  S
Zr405      O1755   2.370       .  S
Zr405      O1757   2.370       .  S
O406        H449   0.990       .  S
O407      Zr1725   2.436       .  S
O407        H448   0.990       .  S
O407        H452   0.990       .  S
Zr408       O409   2.436       .  S
Zr408       O412   2.369       .  S
Zr408       O411   2.370       .  S
O409        H450   0.990       .  S
O409        H453   0.990       .  S
O410        H443   0.990       .  S
O411      Zr1751   2.383       .  S
O412       Zr432   2.385       .  S
O412        H439   0.966       .  S
O413       Zr425   2.445       .  S
O414      Zr1752   2.416       .  S
C415        C541   1.481       .  S
O416       Zr428   2.437   1_455  S
O416        C418   1.288       .  A
O417        C418   1.287       .  A
C418        C616   1.482       .  S
O419       Zr428   2.439       .  S
O419        C421   1.288   1_655  A
O420       C1741   1.286       .  A
C421       O1740   1.286       .  A
C421        C628   1.487       .  S
O422       Zr425   2.435       .  S
O423       Zr431   2.432       .  S
C424        C556   1.492       .  S
Zr425       O427   2.434       .  S
Zr425       O437   2.372       .  S
Zr425       O435   2.370       .  S
O426        H446   0.990       .  S
O426        H451   0.990       .  S
O427        H447   0.990       .  S
Zr428       O429   2.433   1_655  S
Zr428      O1750   2.435       .  S
Zr428       O434   2.371   1_655  S
Zr428       O433   2.369   1_655  S
Zr428      O1758   2.369       .  S
Zr428      O1756   2.369       .  S
O429        H445   0.990       .  S
O430      Zr1748   2.435       .  S
O430        H444   0.990       .  S
O430        H454   0.990       .  S
Zr431      O1720   2.425   1_455  S
Zr431      O1731   2.383   1_455  S
Zr431      O1426   2.387   1_455  S
Zr431       O437   2.386       .  S
Zr432      O1734   2.416       .  S
Zr432      O1423   2.383       .  S
Zr432      O1755   2.381       .  S
O433      Zr1422   2.383   1_556  S
O433        H441   0.966       .  S
O435      Zr1725   2.370       .  S
O435      Zr1752   2.381       .  S
O436      Zr1748   2.369       .  S
O436      Zr1421   2.387   1_556  S
O436        H440   0.966       .  S
O437      Zr1725   2.370       .  S
O437        H442   0.966       .  S
O438      Zr1748   2.369       .  S
O455       Zr467   2.443       .  S
O455        C457   1.289       .  A
O456      Zr1153   2.422   1_545  S
O456        C457   1.286       .  A
C457        C532   1.483       .  S
O458       Zr470   2.436       .  S
O458       C1120   1.287       .  A
O459       Zr494   2.425       .  S
O459        C460   1.287       .  A
C460       O1118   1.287       .  A
C460        C589   1.491       .  S
O461       Zr470   2.439       .  S
O461       C1123   1.288       .  A
O462       Zr493   2.419       .  S
O462       C1123   1.285       .  A
C463       O1121   1.288       .  A
C463       O1122   1.285       .  A
C463        C604   1.484       .  S
O464       Zr467   2.444       .  S
O464        C466   1.290       .  A
O465       Zr494   2.422   1_545  S
O465        C466   1.286       .  A
C466        C553   1.491       .  S
Zr467       O468   2.434       .  S
Zr467       O473   2.370       .  S
Zr467       O474   2.370       .  S
O468        H511   0.990       .  S
O469        H510   0.990       .  S
O469        H514   0.990       .  S
Zr470      O1131   2.435       .  S
Zr470       O472   2.436       .  S
Zr470      O1134   2.371       .  S
Zr470      O1133   2.368       .  S
Zr470       O498   2.369       .  S
Zr470       O500   2.370       .  S
O471      Zr1130   2.435   1_545  S
O471        H512   0.990       .  S
O471        H515   0.990       .  S
O472        H505   0.990       .  S
O473      Zr1130   2.368   1_545  S
O473      Zr1153   2.380   1_545  S
O474      Zr1130   2.371   1_545  S
O474       Zr494   2.386   1_545  S
O474        H501   0.966       .  S
O475       Zr487   2.446   1_545  S
O475       C1137   1.290       .  A
O476       C1137   1.286   1_565  A
C477       O1135   1.290       .  A
C477       O1136   1.286       .  A
C477        C577   1.487       .  S
O478       Zr490   2.431       .  S
O479       Zr493   2.428       .  S
C480        C520   1.488       .  S
O481       Zr490   2.436       .  S
O482      Zr1154   2.424       .  S
C483        C544   1.481       .  S
O484       Zr487   2.448       .  S
O484       C1146   1.289       .  A
O485        C486   1.284       .  A
C486       O1144   1.289       .  A
C486        C568   1.466       .  S
Zr487      O1148   2.435       .  S
Zr487       O489   2.434   1_565  S
Zr487      O1155   2.374       .  S
Zr487      O1156   2.373       .  S
Zr487       O499   2.370   1_565  S
Zr487       O497   2.372   1_565  S
O488      Zr1147   2.435       .  S
O488        H508   0.990       .  S
O488        H513   0.990       .  S
O489        H509   0.990       .  S
Zr490       O492   2.434       .  S
Zr490       O500   2.367       .  S
Zr490       O498   2.368       .  S
O491        H507   0.990       .  S
O492        H506   0.990       .  S
O492        H516   0.990       .  S
Zr493      O1116   2.422       .  S
Zr493      O1133   2.380       .  S
Zr493       O498   2.381       .  S
Zr493       O829   2.386       .  S
Zr494      O1142   2.424       .  S
Zr494       O825   2.386       .  S
Zr494      O1160   2.380       .  S
O495      Zr1147   2.374       .  S
O495       Zr824   2.386   1_556  S
O495        H503   0.966       .  S
O496      Zr1147   2.373       .  S
O498        H502   0.966       .  S
O499       Zr823   2.386   1_546  S
O499        H504   0.966       .  S
O500      Zr1154   2.380       .  S
C517        C518   1.404       .  A
C518        C519   1.395       .  A
C518        H523   1.083       .  S
C519        O524   1.372       .  S
C520        C521   1.407       .  A
C521        C522   1.403       .  A
C521        H525   1.083       .  S
C522        O526   1.372       .  S
O524        H528   0.992       .  S
O526        H527   0.992   1_556  S
C529        C530   1.406       .  A
C530        C531   1.403       .  A
C530        H535   1.084       .  S
C531        C532   1.412       .  A
C531        O536   1.372       .  S
C533        C534   1.397       .  A
C533        H537   1.084       .  S
C534        O538   1.372       .  S
O536        H540   0.992       .  S
O538        H539   0.992       .  S
C541        C546   1.412   1_554  A
C542        C543   1.398       .  A
C542        H547   1.084       .  S
C543        O548   1.372       .  S
C544        C545   1.405   1_554  A
C545        C546   1.402       .  A
C545        H549   1.083       .  S
C546        O550   1.372       .  S
O548        H552   0.992       .  S
O550        H551   0.992       .  S
C553        C554   1.405       .  A
C554        C555   1.396       .  A
C554        H559   1.083       .  S
C555        O560   1.372       .  S
C556        C557   1.408       .  A
C557        C558   1.404       .  A
C557        H561   1.083       .  S
C558        O562   1.372       .  S
O560        H564   0.992       .  S
O562        H563   0.992   1_556  S
C565       C1226   1.402       .  A
C565        C570   1.405   1_565  A
C566       C1225   1.402       .  A
C566        C567   1.401       .  A
C566        H571   1.084       .  S
C567        C568   1.406       .  A
C567        O572   1.372       .  S
C568       C1229   1.401       .  A
C569       C1228   1.401   1_545  A
C569        C570   1.400       .  A
C569        H573   1.084       .  S
C570        O574   1.372       .  S
O572        H576   0.992       .  S
O574        H575   0.991       .  S
C577       C1238   1.405       .  A
C577        C582   1.413       .  A
C578       C1237   1.405       .  A
C578        C579   1.398       .  A
C578        H583   1.084       .  S
C579       C1240   1.412       .  A
C579        O584   1.372       .  S
C580       C1239   1.412       .  A
C580        C581   1.406       .  A
C581        C582   1.402       .  A
C581        H585   1.084       .  S
C582        O586   1.372       .  S
O584        H588   0.992       .  S
O586        H587   0.992       .  S
C589        C590   1.408       .  A
C589       C1254   1.414       .  A
C590       C1251   1.403       .  A
C590        H595   1.083       .  S
C591       C1250   1.403       .  A
C591        C592   1.414       .  A
C591        O596   1.371       .  S
C592        C593   1.406       .  A
C593        C594   1.395       .  A
C593        H597   1.083       .  S
C594       C1249   1.414       .  A
C594        O598   1.372       .  S
O596       H1260   0.992       .  S
O598        H599   0.992       .  S
H600       O1256   0.992   1_545  S
C601       C1262   1.407   1_545  A
C601        C606   1.411       .  A
C602       C1261   1.407       .  A
C602        C603   1.400       .  A
C602        H607   1.084       .  S
C603       C1264   1.412       .  A
C603        O608   1.372       .  S
C604       C1263   1.412   1_545  A
C604        C605   1.405       .  A
C605        C606   1.398       .  A
C605        H609   1.084       .  S
C606        O610   1.372       .  S
O608        H612   0.992       .  S
O610        H611   0.992       .  S
C613       C1934   1.404       .  A
C613        C618   1.412       .  A
C614       C1933   1.404       .  A
C614        C615   1.398       .  A
C614        H619   1.084       .  S
C615        C616   1.411       .  A
C615        O620   1.372       .  S
C616       C1937   1.405   1_455  A
C617       C1936   1.405       .  A
C617        C618   1.401       .  A
C617        H621   1.084       .  S
C618        O622   1.372       .  S
O620        H624   0.992       .  S
O622        H623   0.992       .  S
C625        C626   1.405       .  A
C625       C1950   1.413   1_455  A
C626        C627   1.396       .  A
C626        H631   1.084       .  S
C627        C628   1.412       .  A
C627        O632   1.372       .  S
C628       C1949   1.407   1_455  A
C629       C1948   1.407       .  A
C629        C630   1.402       .  A
C629        H633   1.083       .  S
C630       C1945   1.413       .  A
C630        O634   1.372       .  S
O632        H636   0.992   1_455  S
O634        H635   0.992       .  S
C637        C638   1.404       .  A
C637       C1962   1.411       .  A
C638        C639   1.398       .  A
C638        H643   1.084       .  S
C639       C1960   1.409       .  A
C639        O644   1.372       .  S
C640       C1959   1.409       .  A
C640        C641   1.406   1_655  A
C641        C642   1.403       .  A
C641        H645   1.084       .  S
C642       C1957   1.411       .  A
C642        O646   1.372       .  S
O644        H648   0.992       .  S
O646        H647   0.992       .  S
C649        C650   1.406       .  A
C649        C654   1.414       .  A
C650        C651   1.396       .  A
C650        H655   1.083       .  S
C651        C652   1.414       .  A
C651        O656   1.372       .  S
C652        C653   1.408       .  A
C653        C654   1.403       .  A
C653        H657   1.083       .  S
C654        O658   1.372       .  S
O656        H660   0.992       .  S
O658        H659   0.991       .  S
O661       Zr673   2.444       .  S
O661        C663   1.289       .  A
O662      Zr2019   2.416       .  S
O662        C663   1.286       .  A
C663        C931   1.485       .  S
O664       Zr676   2.445       .  S
O664        C666   1.289       .  A
O665        C666   1.285       .  A
C666        C943   1.482       .  S
O667       Zr676   2.441       .  S
O667        C669   1.289       .  A
O668       Zr699   2.423       .  S
O668       C1989   1.286       .  A
C669       O1988   1.286       .  A
C669        C979   1.492       .  S
O670       Zr673   2.443       .  S
O670        C672   1.288       .  A
O671       Zr700   2.421       .  S
C672        C895   1.466       .  S
Zr673       O674   2.434       .  S
Zr673       O679   2.369       .  S
Zr673       O680   2.371       .  S
O674        H717   0.990       .  S
O675        H716   0.990       .  S
O675        H720   0.990       .  S
Zr676       O677   2.435       .  S
Zr676      O1998   2.436       .  S
Zr676       O680   2.372       .  S
Zr676       O679   2.369       .  S
Zr676      O2024   2.372       .  S
Zr676      O2026   2.369       .  S
O677        H718   0.990       .  S
O677        H721   0.990       .  S
O678      Zr1996   2.436       .  S
O678        H711   0.990       .  S
O679      Zr2019   2.381       .  S
O680        H707   0.966       .  S
O681       Zr693   2.443       .  S
O681        C683   1.289   1_655  A
O682       Zr700   2.418       .  S
O682       C2003   1.285       .  A
C683       O2002   1.285       .  A
C683        C955   1.487       .  S
O684       Zr696   2.435       .  S
O684        C686   1.288       .  A
O685       Zr699   2.424   1_455  S
C686        C922   1.490       .  S
O687       Zr696   2.438   1_545  S
O687        C689   1.288       .  A
O688      Zr2020   2.426   1_545  S
O688        C689   1.287       .  A
C689        C910   1.487       .  S
O690       Zr693   2.441       .  S
O690        C692   1.288       .  A
O691        C692   1.286       .  A
C692        C970   1.480       .  S
Zr693       O694   2.435   1_655  S
Zr693      O2015   2.434       .  S
Zr693       O701   2.372   1_655  S
Zr693       O702   2.372   1_655  S
Zr693      O2025   2.371       .  S
Zr693      O2023   2.370       .  S
O694        H714   0.990       .  S
O694        H719   0.990       .  S
O695      Zr2013   2.434       .  S
O695        H715   0.990       .  S
Zr696       O697   2.434       .  S
Zr696       O702   2.372       .  S
Zr696       O701   2.370       .  S
O697        H713   0.990       .  S
O698        H712   0.990       .  S
O698        H722   0.990       .  S
Zr699      O1982   2.416       .  S
Zr699      O1999   2.381       .  S
Zr699       O704   2.383   1_655  S
Zr699      O1365   2.386       .  S
Zr700      O2008   2.426   1_565  S
Zr700      O2021   2.384       .  S
Zr700       O703   2.381       .  S
Zr700      O1366   2.380   1_565  S
O701      Zr2020   2.384       .  S
O701        H709   0.966       .  S
O703      Zr2013   2.370       .  S
O704      Zr1996   2.372       .  S
O704        H708   0.966       .  S
O705      Zr2013   2.371       .  S
O705      Zr1359   2.386       .  S
O705        H710   0.966       .  S
O706      Zr1996   2.369       .  S
O706      Zr1360   2.380       .  S
O723       Zr735   2.439       .  S
O723        C725   1.288       .  A
O724       Zr761   2.424   1_655  S
O724       C2045   1.287       .  A
C725       O2044   1.287       .  A
C725        C982   1.492       .  S
O726       Zr738   2.443       .  S
O726        C728   1.290   1_554  A
O727       Zr762   2.418       .  S
O727        C728   1.285   1_554  A
C728        C847   1.488       .  S
O729       Zr738   2.440       .  S
O729        C731   1.288       .  A
O730      Zr2081   2.425       .  S
O730        C731   1.287       .  A
C731        C859   1.483       .  S
O732       Zr735   2.441       .  S
O732        C734   1.289       .  A
O733       Zr762   2.423       .  S
O733        C734   1.286       .  A
C734        C967   1.479       .  S
Zr735       O736   2.433       .  S
Zr735      O2057   2.436       .  S
Zr735       O741   2.370       .  S
Zr735       O742   2.370       .  S
Zr735      O2085   2.370       .  S
Zr735      O2087   2.370       .  S
O736        H779   0.990       .  S
O737      Zr2055   2.436       .  S
O737        H778   0.990       .  S
O737        H782   0.990       .  S
Zr738       O739   2.436       .  S
Zr738      O1070   2.435   1_554  S
Zr738       O742   2.369       .  S
Zr738       O741   2.370       .  S
Zr738      O1096   2.372   1_554  S
Zr738      O1098   2.370   1_554  S
O739        H780   0.990       .  S
O739        H783   0.990       .  S
O740      Zr1068   2.435       .  S
O740        H773   0.990       .  S
O741      Zr2081   2.383       .  S
O742       Zr762   2.385       .  S
O742        H769   0.966       .  S
O743       Zr755   2.445       .  S
O743       C1075   1.289       .  A
O744      Zr2082   2.416   1_556  S
O744       C1075   1.285   1_556  A
C745       O1073   1.289       .  A
C745       O1074   1.285       .  A
C745        C871   1.481       .  S
O746       Zr758   2.437   1_455  S
O746        C748   1.288       .  A
O747      Zr1091   2.425       .  S
O747        C748   1.287       .  A
C748        C946   1.482       .  S
O749       Zr758   2.439       .  S
O749        C751   1.288   1_655  A
O750      Zr1092   2.421       .  S
O750       C2071   1.286       .  A
C751       O2070   1.286       .  A
C751        C958   1.487       .  S
O752       Zr755   2.435   1_556  S
O752       C1084   1.287       .  A
O753       Zr761   2.432       .  S
O753       C1084   1.288   1_554  A
C754       O1082   1.287       .  A
C754       O1083   1.288       .  A
C754        C886   1.492       .  S
Zr755      O1086   2.436   1_554  S
Zr755       O757   2.434       .  S
Zr755      O1093   2.368   1_554  S
Zr755      O1094   2.371   1_554  S
Zr755       O767   2.372       .  S
Zr755       O765   2.370       .  S
O756      Zr1085   2.436       .  S
O756        H776   0.990       .  S
O756        H781   0.990       .  S
O757        H777   0.990       .  S
Zr758       O759   2.433   1_655  S
Zr758      O2080   2.435       .  S
Zr758       O764   2.371   1_655  S
Zr758       O763   2.369   1_655  S
Zr758      O2088   2.369       .  S
Zr758      O2086   2.369       .  S
O759        H775   0.990       .  S
O760      Zr2078   2.435       .  S
O760        H774   0.990       .  S
O760        H784   0.990       .  S
Zr761      O2050   2.425   1_455  S
Zr761      O1077   2.425   1_554  S
Zr761      O2061   2.383   1_455  S
Zr761      O1094   2.383   1_554  S
Zr761      O2416   2.387   1_454  S
Zr761       O767   2.386       .  S
Zr762      O2064   2.416   1_554  S
Zr762      O1080   2.421   1_554  S
Zr762      O2413   2.383   1_554  S
Zr762      O2085   2.381       .  S
Zr762      O1098   2.382   1_554  S
O763      Zr1085   2.368       .  S
O763      Zr2412   2.383       .  S
O763        H771   0.966       .  S
O764      Zr1085   2.371       .  S
O764      Zr1091   2.383       .  S
O765      Zr2055   2.370       .  S
O765      Zr2082   2.381       .  S
O766      Zr1068   2.372       .  S
O766      Zr2078   2.369       .  S
O766      Zr2411   2.387       .  S
O766        H770   0.966       .  S
O767      Zr2055   2.370       .  S
O767        H772   0.966       .  S
O768      Zr1068   2.370       .  S
O768      Zr2078   2.369       .  S
O768      Zr1092   2.382       .  S
O785       Zr797   2.443       .  S
O785        C787   1.289       .  A
O786        C787   1.286       .  A
C787        C862   1.483       .  S
O788       Zr800   2.436       .  S
O789       Zr824   2.425       .  S
O789        C790   1.287       .  A
C790        C919   1.491       .  S
O791       Zr800   2.439   1_545  S
O792       Zr823   2.419   1_545  S
C793        C934   1.484       .  S
O794       Zr797   2.444   1_556  S
O794        C796   1.290       .  A
O795       Zr824   2.422       .  S
O795        C796   1.286   1_554  A
C796        C883   1.491   1_556  S
Zr797       O798   2.434       .  S
Zr797      O1129   2.435   1_554  S
Zr797       O803   2.370       .  S
Zr797       O804   2.370       .  S
Zr797      O1157   2.369   1_554  S
Zr797      O1159   2.373   1_554  S
O798        H841   0.990       .  S
O799      Zr1127   2.435       .  S
O799        H840   0.990       .  S
O799        H844   0.990       .  S
Zr800       O802   2.436       .  S
Zr800       O828   2.369       .  S
Zr800       O830   2.370       .  S
O801        H842   0.990       .  S
O801        H845   0.990       .  S
O802        H835   0.990       .  S
O804       Zr824   2.386       .  S
O804        H831   0.966       .  S
O805       Zr817   2.446       .  S
O806      Zr1154   2.420       .  S
C807        C907   1.487       .  S
O808       Zr820   2.431   1_556  S
O808       C1140   1.286       .  A
O809       Zr823   2.428   1_556  S
O809       C1140   1.287       .  A
C810       O1138   1.286       .  A
C810       O1139   1.287       .  A
C810        C850   1.488       .  S
O811       Zr820   2.436       .  S
O811       C1143   1.287       .  A
O812       C1143   1.287       .  A
C813       O1141   1.287       .  A
C813       O1142   1.287       .  A
C813        C874   1.481       .  S
O814       Zr817   2.448       .  S
O815      Zr1153   2.416       .  S
O815        C816   1.284       .  A
C816        C898   1.466       .  S
Zr817       O819   2.434       .  S
Zr817       O829   2.370       .  S
Zr817       O827   2.372       .  S
O818        H838   0.990       .  S
O818        H843   0.990       .  S
O819        H839   0.990       .  S
Zr820      O1151   2.434   1_554  S
Zr820       O822   2.434       .  S
Zr820      O1156   2.371   1_554  S
Zr820      O1155   2.371   1_554  S
Zr820       O830   2.367       .  S
Zr820       O828   2.368       .  S
O821      Zr1150   2.434       .  S
O821        H837   0.990       .  S
O822        H836   0.990       .  S
O822        H846   0.990       .  S
Zr823      O1145   2.416   1_554  S
Zr823      O1156   2.382   1_554  S
Zr823       O828   2.381       .  S
Zr824      O1136   2.420   1_554  S
Zr824      O1157   2.382   1_554  S
O825      Zr1150   2.371       .  S
O825        H833   0.966       .  S
O826      Zr1150   2.371       .  S
O826      Zr1153   2.382       .  S
O827      Zr1127   2.369       .  S
O827      Zr1154   2.382       .  S
O828        H832   0.966       .  S
O829      Zr1127   2.373       .  S
O829        H834   0.966       .  S
C847        C848   1.404   1_556  A
C847       C1182   1.414       .  A
C848        C849   1.395       .  A
C848        H853   1.083       .  S
C849       C1180   1.413   1_554  A
C849        O854   1.372       .  S
C850       C1179   1.413       .  A
C850        C851   1.407       .  A
C851        C852   1.403       .  A
C851        H855   1.083       .  S
C852       C1177   1.414       .  A
C852        O856   1.372       .  S
O854        H858   0.992   1_554  S
O856        H857   0.992       .  S
C859        C860   1.406       .  A
C859       C1194   1.411   1_554  A
C860        C861   1.403       .  A
C860        H865   1.084       .  S
C861        C862   1.412       .  A
C861        O866   1.372       .  S
C862       C1193   1.404   1_554  A
C863       C1192   1.404       .  A
C863        C864   1.397       .  A
C863        H867   1.084       .  S
C864       C1189   1.411       .  A
C864        O868   1.372       .  S
O866        H870   0.992       .  S
O868        H869   0.992       .  S
C871       C1202   1.404       .  A
C871        C876   1.412       .  A
C872       C1201   1.404       .  A
C872        C873   1.398       .  A
C872        H877   1.084       .  S
C873       C1204   1.411       .  A
C873        O878   1.372       .  S
C874       C1203   1.411       .  A
C874        C875   1.405       .  A
C875        C876   1.402       .  A
C875        H879   1.083       .  S
C876        O880   1.372       .  S
O878        H882   0.992       .  S
O880        H881   0.992       .  S
C883        C884   1.405       .  A
C883       C1218   1.415   1_554  A
C884        C885   1.396       .  A
C884        H889   1.083       .  S
C885       C1216   1.414   1_554  A
C885        O890   1.372       .  S
C886       C1215   1.414       .  A
C886        C887   1.408       .  A
C887        C888   1.404       .  A
C887        H891   1.083       .  S
C888       C1213   1.415       .  A
C888        O892   1.372       .  S
O890        H894   0.992   1_554  S
O892        H893   0.992       .  S
C895        C900   1.405       .  A
C896        C897   1.401       .  A
C896        H901   1.084       .  S
C897        C898   1.406       .  A
C897        O902   1.372       .  S
C899        C900   1.400       .  A
C899        H903   1.084       .  S
C900        O904   1.372       .  S
O902        H906   0.992       .  S
O904        H905   0.991       .  S
C907        C912   1.413   1_545  A
C908        C909   1.398       .  A
C908        H913   1.084       .  S
C909        O914   1.372       .  S
C910        C911   1.406   1_545  A
C911        C912   1.402       .  A
C911        H915   1.084       .  S
C912        O916   1.372       .  S
O914        H918   0.992       .  S
O916        H917   0.992       .  S
C919        C920   1.408       .  A
C920        H925   1.083       .  S
C921        C922   1.414       .  A
C921        O926   1.371       .  S
C922        C923   1.406       .  A
C923        C924   1.395       .  A
C923        H927   1.083       .  S
C924        O928   1.372       .  S
O928        H929   0.992   1_565  S
C931        C936   1.411       .  A
C932        C933   1.400       .  A
C932        H937   1.084       .  S
C933        O938   1.372       .  S
C934        C935   1.405       .  A
C935        C936   1.398       .  A
C935        H939   1.084       .  S
C936        O940   1.372       .  S
O938        H942   0.992       .  S
O940        H941   0.992       .  S
C943       C2264   1.404       .  A
C943        C948   1.412       .  A
C944       C2263   1.404       .  A
C944        C945   1.398       .  A
C944        H949   1.084       .  S
C945        C946   1.411       .  A
C945        O950   1.372       .  S
C946       C2267   1.405   1_455  A
C947       C2266   1.405       .  A
C947        C948   1.401       .  A
C947        H951   1.084       .  S
C948        O952   1.372       .  S
O950        H954   0.992       .  S
O952        H953   0.992       .  S
C955        C956   1.405       .  A
C955       C2280   1.413   1_455  A
C956        C957   1.396       .  A
C956        H961   1.084       .  S
C957        C958   1.412       .  A
C957        O962   1.372       .  S
C958       C2279   1.407   1_455  A
C959       C2278   1.407       .  A
C959        C960   1.402       .  A
C959        H963   1.083       .  S
C960       C2275   1.413       .  A
C960        O964   1.372       .  S
O962        H966   0.992   1_455  S
O964        H965   0.992       .  S
C967        C968   1.404       .  A
C967       C2292   1.411       .  A
C968        C969   1.398       .  A
C968        H973   1.084       .  S
C969       C2290   1.409       .  A
C969        O974   1.372       .  S
C970       C2289   1.409       .  A
C970        C971   1.406   1_655  A
C971        C972   1.403       .  A
C971        H975   1.084       .  S
C972       C2287   1.411       .  A
C972        O976   1.372       .  S
O974        H978   0.992       .  S
O976        H977   0.992       .  S
C979        C980   1.406       .  A
C979        C984   1.414       .  A
C980        C981   1.396       .  A
C980        H985   1.083       .  S
C981        C982   1.414       .  A
C981        O986   1.372       .  S
C982        C983   1.408       .  A
C983        C984   1.403       .  A
C983        H987   1.083       .  S
C984        O988   1.372       .  S
O986        H990   0.992       .  S
O988        H989   0.991       .  S
O991      Zr1003   2.444       .  S
O991        C993   1.289       .  A
O992      Zr2349   2.416       .  S
O992        C993   1.286       .  A
C993       C1261   1.485       .  S
O994      Zr1006   2.445       .  S
O994        C996   1.289       .  A
O995        C996   1.285       .  A
C996       C1273   1.482       .  S
O997      Zr1006   2.441       .  S
O997        C999   1.289       .  A
O998      Zr1029   2.423       .  S
O998       C2319   1.286       .  A
C999       O2318   1.286       .  A
C999       C1309   1.492       .  S
O1000     Zr1003   2.443       .  S
O1000      C1002   1.288       .  A
O1001     Zr1030   2.421       .  S
C1002      C1225   1.466       .  S
Zr1003     O1004   2.434       .  S
Zr1003     O1009   2.369       .  S
Zr1003     O1010   2.371       .  S
O1004      H1047   0.990       .  S
O1005      H1046   0.990       .  S
O1005      H1050   0.990       .  S
Zr1006     O1007   2.435       .  S
Zr1006     O2328   2.436       .  S
Zr1006     O1010   2.372       .  S
Zr1006     O1009   2.369       .  S
Zr1006     O2354   2.372       .  S
Zr1006     O2356   2.369       .  S
O1007      H1048   0.990       .  S
O1007      H1051   0.990       .  S
O1008     Zr2326   2.436       .  S
O1008      H1041   0.990       .  S
O1009     Zr2349   2.381       .  S
O1010      H1037   0.966       .  S
O1011     Zr1023   2.443       .  S
O1011      C1013   1.289   1_655  A
O1012     Zr1030   2.418       .  S
O1012      C2333   1.285       .  A
C1013      O2332   1.285       .  A
C1013      C1285   1.487       .  S
O1014     Zr1026   2.435       .  S
O1014      C1016   1.288       .  A
O1015     Zr1029   2.424   1_455  S
C1016      C1252   1.490       .  S
O1017     Zr1026   2.438   1_545  S
O1017      C1019   1.288       .  A
O1018     Zr2350   2.426   1_545  S
O1018      C1019   1.287       .  A
C1019      C1240   1.487       .  S
O1020     Zr1023   2.441       .  S
O1020      C1022   1.288       .  A
O1021      C1022   1.286       .  A
C1022      C1300   1.480       .  S
Zr1023     O1024   2.435   1_655  S
Zr1023     O2345   2.434       .  S
Zr1023     O1031   2.372   1_655  S
Zr1023     O1032   2.372   1_655  S
Zr1023     O2355   2.371       .  S
Zr1023     O2353   2.370       .  S
O1024      H1044   0.990       .  S
O1024      H1049   0.990       .  S
O1025     Zr2343   2.434       .  S
O1025      H1045   0.990       .  S
Zr1026     O1027   2.434       .  S
Zr1026     O1032   2.372       .  S
Zr1026     O1031   2.370       .  S
O1027      H1043   0.990       .  S
O1028      H1042   0.990       .  S
O1028      H1052   0.990       .  S
Zr1029     O2312   2.416       .  S
Zr1029     O2329   2.381       .  S
Zr1029     O1034   2.383   1_655  S
Zr1029     O1695   2.386       .  S
Zr1030     O2338   2.426   1_565  S
Zr1030     O2351   2.384       .  S
Zr1030     O1033   2.381       .  S
Zr1030     O1696   2.380   1_565  S
O1031     Zr2350   2.384       .  S
O1031      H1039   0.966       .  S
O1033     Zr2343   2.370       .  S
O1034     Zr2326   2.372       .  S
O1034      H1038   0.966       .  S
O1035     Zr2343   2.371       .  S
O1035     Zr1689   2.386       .  S
O1035      H1040   0.966       .  S
O1036     Zr2326   2.369       .  S
O1036     Zr1690   2.380       .  S
O1053     Zr1065   2.439       .  S
O1053      C1055   1.288       .  A
O1054     Zr1091   2.424   1_655  S
O1054      C2375   1.287       .  A
C1055      O2374   1.287       .  A
C1055      C1312   1.492       .  S
O1056     Zr1068   2.443       .  S
O1056      C1058   1.290       .  A
O1057     Zr1092   2.418       .  S
O1057      C1058   1.285       .  A
C1058      C1177   1.488       .  S
O1059     Zr1068   2.440       .  S
O1059      C1061   1.288       .  A
O1060     Zr2411   2.425       .  S
O1060      C1061   1.287       .  A
C1061      C1189   1.483       .  S
O1062     Zr1065   2.441       .  S
O1062      C1064   1.289       .  A
O1063     Zr1092   2.423       .  S
O1063      C1064   1.286       .  A
C1064      C1297   1.479       .  S
Zr1065     O1066   2.433       .  S
Zr1065     O2387   2.436       .  S
Zr1065     O1071   2.370       .  S
Zr1065     O1072   2.370       .  S
Zr1065     O2415   2.370       .  S
Zr1065     O2417   2.370       .  S
O1066      H1109   0.990       .  S
O1067     Zr2385   2.436       .  S
O1067      H1108   0.990       .  S
O1067      H1112   0.990       .  S
Zr1068     O1069   2.436       .  S
Zr1068     O1072   2.369       .  S
Zr1068     O1071   2.370       .  S
O1069      H1110   0.990       .  S
O1069      H1113   0.990       .  S
O1070      H1103   0.990       .  S
O1071     Zr2411   2.383       .  S
O1072     Zr1092   2.385       .  S
O1072      H1099   0.966       .  S
O1073     Zr1085   2.445       .  S
O1074     Zr2412   2.416       .  S
C1075      C1201   1.481       .  S
O1076     Zr1088   2.437   1_455  S
O1076      C1078   1.288       .  A
O1077      C1078   1.287       .  A
C1078      C1276   1.482       .  S
O1079     Zr1088   2.439       .  S
O1079      C1081   1.288   1_655  A
O1080      C2401   1.286       .  A
C1081      O2400   1.286       .  A
C1081      C1288   1.487       .  S
O1082     Zr1085   2.435       .  S
O1083     Zr1091   2.432       .  S
C1084      C1216   1.492       .  S
Zr1085     O1087   2.434       .  S
Zr1085     O1097   2.372       .  S
Zr1085     O1095   2.370       .  S
O1086      H1106   0.990       .  S
O1086      H1111   0.990       .  S
O1087      H1107   0.990       .  S
Zr1088     O1089   2.433   1_655  S
Zr1088     O2410   2.435       .  S
Zr1088     O1094   2.371   1_655  S
Zr1088     O1093   2.369   1_655  S
Zr1088     O2418   2.369       .  S
Zr1088     O2416   2.369       .  S
O1089      H1105   0.990       .  S
O1090     Zr2408   2.435       .  S
O1090      H1104   0.990       .  S
O1090      H1114   0.990       .  S
Zr1091     O2380   2.425   1_455  S
Zr1091     O2391   2.383   1_455  S
Zr1091     O2086   2.387   1_455  S
Zr1091     O1097   2.386       .  S
Zr1092     O2394   2.416       .  S
Zr1092     O2083   2.383       .  S
Zr1092     O2415   2.381       .  S
O1093     Zr2082   2.383   1_556  S
O1093      H1101   0.966       .  S
O1095     Zr2385   2.370       .  S
O1095     Zr2412   2.381       .  S
O1096     Zr2408   2.369       .  S
O1096     Zr2081   2.387   1_556  S
O1096      H1100   0.966       .  S
O1097     Zr2385   2.370       .  S
O1097      H1102   0.966       .  S
O1098     Zr2408   2.369       .  S
O1115     Zr1127   2.443       .  S
O1115      C1117   1.289       .  A
O1116      C1117   1.286       .  A
C1117      C1192   1.483       .  S
O1118     Zr1130   2.436       .  S
O1119     Zr1154   2.425       .  S
O1119      C1120   1.287       .  A
C1120      C1249   1.491       .  S
O1121     Zr1130   2.439   1_545  S
O1122     Zr1153   2.419   1_545  S
C1123      C1264   1.484       .  S
O1124     Zr1127   2.444       .  S
O1124      C1126   1.290       .  A
O1125     Zr1154   2.422       .  S
O1125      C1126   1.286       .  A
C1126      C1213   1.491       .  S
Zr1127     O1128   2.434       .  S
Zr1127     O1133   2.370       .  S
Zr1127     O1134   2.370       .  S
O1128      H1171   0.990       .  S
O1129      H1170   0.990       .  S
O1129      H1174   0.990       .  S
Zr1130     O1132   2.436       .  S
Zr1130     O1158   2.369       .  S
Zr1130     O1160   2.370       .  S
O1131      H1172   0.990       .  S
O1131      H1175   0.990       .  S
O1132      H1165   0.990       .  S
O1134     Zr1154   2.386       .  S
O1134      H1161   0.966       .  S
O1135     Zr1147   2.446       .  S
C1137      C1237   1.487       .  S
O1138     Zr1150   2.431       .  S
O1139     Zr1153   2.428       .  S
C1140      C1180   1.488       .  S
O1141     Zr1150   2.436       .  S
C1143      C1204   1.481       .  S
O1144     Zr1147   2.448       .  S
O1145      C1146   1.284       .  A
C1146      C1228   1.466       .  S
Zr1147     O1149   2.434       .  S
Zr1147     O1159   2.370       .  S
Zr1147     O1157   2.372       .  S
O1148      H1168   0.990       .  S
O1148      H1173   0.990       .  S
O1149      H1169   0.990       .  S
Zr1150     O1152   2.434       .  S
Zr1150     O1160   2.367       .  S
Zr1150     O1158   2.368       .  S
O1151      H1167   0.990       .  S
O1152      H1166   0.990       .  S
O1152      H1176   0.990       .  S
Zr1153     O1158   2.381       .  S
O1155      H1163   0.966       .  S
O1158      H1162   0.966       .  S
O1159      H1164   0.966       .  S
C1177      C1178   1.404       .  A
C1178      C1179   1.395       .  A
C1178      H1183   1.083       .  S
C1179      O1184   1.372       .  S
C1180      C1181   1.407       .  A
C1181      C1182   1.403       .  A
C1181      H1185   1.083       .  S
C1182      O1186   1.372       .  S
O1184      H1188   0.992       .  S
O1186      H1187   0.992   1_556  S
C1189      C1190   1.406       .  A
C1190      C1191   1.403       .  A
C1190      H1195   1.084       .  S
C1191      C1192   1.412       .  A
C1191      O1196   1.372       .  S
C1193      C1194   1.397       .  A
C1193      H1197   1.084       .  S
C1194      O1198   1.372       .  S
O1196      H1200   0.992       .  S
O1198      H1199   0.992       .  S
C1201      C1206   1.412   1_554  A
C1202      C1203   1.398       .  A
C1202      H1207   1.084       .  S
C1203      O1208   1.372       .  S
C1204      C1205   1.405   1_554  A
C1205      C1206   1.402       .  A
C1205      H1209   1.083       .  S
C1206      O1210   1.372       .  S
O1208      H1212   0.992       .  S
O1210      H1211   0.992       .  S
C1213      C1214   1.405       .  A
C1214      C1215   1.396       .  A
C1214      H1219   1.083       .  S
C1215      O1220   1.372       .  S
C1216      C1217   1.408       .  A
C1217      C1218   1.404       .  A
C1217      H1221   1.083       .  S
C1218      O1222   1.372       .  S
O1220      H1224   0.992       .  S
O1222      H1223   0.992   1_556  S
C1225      C1230   1.405       .  A
C1226      C1227   1.401       .  A
C1226      H1231   1.084       .  S
C1227      C1228   1.406       .  A
C1227      O1232   1.372       .  S
C1229      C1230   1.400       .  A
C1229      H1233   1.084       .  S
C1230      O1234   1.372       .  S
O1232      H1236   0.992       .  S
O1234      H1235   0.991       .  S
C1237      C1242   1.413   1_545  A
C1238      C1239   1.398       .  A
C1238      H1243   1.084       .  S
C1239      O1244   1.372       .  S
C1240      C1241   1.406   1_545  A
C1241      C1242   1.402       .  A
C1241      H1245   1.084       .  S
C1242      O1246   1.372       .  S
O1244      H1248   0.992       .  S
O1246      H1247   0.992       .  S
C1249      C1250   1.408       .  A
C1250      H1255   1.083       .  S
C1251      C1252   1.414       .  A
C1251      O1256   1.371       .  S
C1252      C1253   1.406       .  A
C1253      C1254   1.395       .  A
C1253      H1257   1.083       .  S
C1254      O1258   1.372       .  S
O1258      H1259   0.992   1_565  S
C1261      C1266   1.411       .  A
C1262      C1263   1.400       .  A
C1262      H1267   1.084       .  S
C1263      O1268   1.372       .  S
C1264      C1265   1.405       .  A
C1265      C1266   1.398       .  A
C1265      H1269   1.084       .  S
C1266      O1270   1.372       .  S
O1268      H1272   0.992       .  S
O1270      H1271   0.992       .  S
C1273      C2594   1.404       .  A
C1273      C1278   1.412       .  A
C1274      C2593   1.404       .  A
C1274      C1275   1.398       .  A
C1274      H1279   1.084       .  S
C1275      C1276   1.411       .  A
C1275      O1280   1.372       .  S
C1276      C2597   1.405   1_455  A
C1277      C2596   1.405       .  A
C1277      C1278   1.401       .  A
C1277      H1281   1.084       .  S
C1278      O1282   1.372       .  S
O1280      H1284   0.992       .  S
O1282      H1283   0.992       .  S
C1285      C1286   1.405       .  A
C1285      C2610   1.413   1_455  A
C1286      C1287   1.396       .  A
C1286      H1291   1.084       .  S
C1287      C1288   1.412       .  A
C1287      O1292   1.372       .  S
C1288      C2609   1.407   1_455  A
C1289      C2608   1.407       .  A
C1289      C1290   1.402       .  A
C1289      H1293   1.083       .  S
C1290      C2605   1.413       .  A
C1290      O1294   1.372       .  S
O1292      H1296   0.992   1_455  S
O1294      H1295   0.992       .  S
C1297      C1298   1.404       .  A
C1297      C2622   1.411       .  A
C1298      C1299   1.398       .  A
C1298      H1303   1.084       .  S
C1299      C2620   1.409       .  A
C1299      O1304   1.372       .  S
C1300      C2619   1.409       .  A
C1300      C1301   1.406   1_655  A
C1301      C1302   1.403       .  A
C1301      H1305   1.084       .  S
C1302      C2617   1.411       .  A
C1302      O1306   1.372       .  S
O1304      H1308   0.992       .  S
O1306      H1307   0.992       .  S
C1309      C1310   1.406       .  A
C1309      C1314   1.414       .  A
C1310      C1311   1.396       .  A
C1310      H1315   1.083       .  S
C1311      C1312   1.414       .  A
C1311      O1316   1.372       .  S
C1312      C1313   1.408       .  A
C1313      C1314   1.403       .  A
C1313      H1317   1.083       .  S
C1314      O1318   1.372       .  S
O1316      H1320   0.992       .  S
O1318      H1319   0.991       .  S
O1321     Zr1333   2.444   1_545  S
O1321      C1323   1.289       .  A
O1322      C1323   1.286       .  A
C1323      C1591   1.485       .  S
O1324     Zr1336   2.445       .  S
O1324      C1326   1.289       .  A
O1325     Zr2020   2.417   1_545  S
O1325      C1326   1.285       .  A
C1326      C1603   1.482       .  S
O1327     Zr1336   2.441   1_655  S
O1327      C1329   1.289       .  A
O1328     Zr1359   2.423   1_545  S
C1329      C1639   1.492       .  S
O1330     Zr1333   2.443       .  S
O1330      C1332   1.288       .  A
O1331     Zr1360   2.421   1_655  S
O1331      C1992   1.285       .  A
C1332      O1991   1.285       .  A
C1332      C1555   1.466       .  S
Zr1333     O1334   2.434   1_565  S
Zr1333     O1995   2.435       .  S
Zr1333     O1339   2.369   1_565  S
Zr1333     O1340   2.371   1_565  S
Zr1333     O2023   2.372       .  S
Zr1333     O2025   2.372       .  S
O1334      H1377   0.990       .  S
O1335     Zr1993   2.435       .  S
O1335      H1376   0.990       .  S
O1335      H1380   0.990       .  S
Zr1336     O1337   2.435   1_455  S
Zr1336     O1340   2.372   1_455  S
Zr1336     O1339   2.369   1_455  S
O1337      H1378   0.990       .  S
O1337      H1381   0.990       .  S
O1338      H1371   0.990       .  S
O1340     Zr2020   2.386   1_645  S
O1340      H1367   0.966       .  S
O1341     Zr1353   2.443       .  S
O1341      C1343   1.289       .  A
O1342     Zr1360   2.418       .  S
C1343      C1615   1.487       .  S
O1344     Zr1356   2.435       .  S
O1344      C1346   1.288       .  A
O1345     Zr1359   2.424       .  S
O1345      C2006   1.286       .  A
C1346      O2005   1.286       .  A
C1346      C1582   1.490       .  S
O1347     Zr1356   2.438       .  S
O1347      C1349   1.288       .  A
O1348      C1349   1.287       .  A
C1349      C1570   1.487       .  S
O1350     Zr1353   2.441       .  S
O1350      C1352   1.288       .  A
O1351     Zr2019   2.423       .  S
O1351      C1352   1.286       .  A
C1352      C1630   1.480       .  S
Zr1353     O1354   2.435       .  S
Zr1353     O1361   2.372       .  S
Zr1353     O1362   2.372       .  S
O1354      H1374   0.990       .  S
O1354      H1379   0.990       .  S
O1355      H1375   0.990       .  S
Zr1356     O1357   2.434       .  S
Zr1356     O2018   2.434       .  S
Zr1356     O1362   2.372       .  S
Zr1356     O1361   2.370       .  S
Zr1356     O2026   2.368       .  S
Zr1356     O2024   2.368       .  S
O1357      H1373   0.990       .  S
O1358     Zr2016   2.434   1_545  S
O1358      H1372   0.990       .  S
O1358      H1382   0.990       .  S
Zr1359     O2011   2.423       .  S
Zr1359     O2022   2.381       .  S
Zr1359     O1364   2.383   1_565  S
Zr1360     O1985   2.417       .  S
Zr1360     O2000   2.386   1_455  S
Zr1360     O1363   2.381   1_455  S
O1361      H1369   0.966       .  S
O1362     Zr2019   2.381       .  S
O1363     Zr1993   2.372       .  S
O1364     Zr2016   2.368   1_545  S
O1364      H1368   0.966       .  S
O1365     Zr1993   2.372       .  S
O1365      H1370   0.966       .  S
O1366     Zr2016   2.368   1_545  S
O1383     Zr1395   2.439   1_655  S
O1383      C1385   1.288       .  A
O1384     Zr1421   2.424       .  S
C1385      C1642   1.492       .  S
O1386     Zr1398   2.443       .  S
O1386      C1388   1.290   1_554  A
O1387     Zr1422   2.418   1_655  S
O1387      C1388   1.285   1_554  A
C1388      C1507   1.488       .  S
O1389     Zr1398   2.440       .  S
O1389      C1391   1.288       .  A
O1390      C1391   1.287       .  A
C1391      C1519   1.483       .  S
O1392     Zr1395   2.441       .  S
O1392      C1394   1.289       .  A
O1393     Zr1422   2.423       .  S
O1393      C1394   1.286       .  A
C1394      C1627   1.479       .  S
Zr1395     O1396   2.433   1_455  S
Zr1395     O1401   2.370   1_455  S
Zr1395     O1402   2.370   1_455  S
O1396      H1439   0.990       .  S
O1397      H1438   0.990       .  S
O1397      H1442   0.990       .  S
Zr1398     O1399   2.436       .  S
Zr1398     O1730   2.435   1_554  S
Zr1398     O1402   2.369       .  S
Zr1398     O1401   2.370       .  S
Zr1398     O1756   2.372   1_554  S
Zr1398     O1758   2.370   1_554  S
O1399      H1440   0.990       .  S
O1399      H1443   0.990       .  S
O1400     Zr1728   2.435       .  S
O1400      H1433   0.990       .  S
O1402     Zr1422   2.385   1_655  S
O1402      H1429   0.966       .  S
O1403     Zr1415   2.445       .  S
O1403      C1735   1.289       .  A
O1404      C1735   1.285   1_556  A
C1405      O1733   1.289       .  A
C1405      O1734   1.285       .  A
C1405      C1531   1.481       .  S
O1406     Zr1418   2.437       .  S
O1406      C1408   1.288       .  A
O1407     Zr1751   2.425       .  S
O1407      C1408   1.287       .  A
C1408      C1606   1.482       .  S
O1409     Zr1418   2.439       .  S
O1409      C1411   1.288       .  A
O1410     Zr1752   2.421       .  S
C1411      C1618   1.487       .  S
O1412     Zr1415   2.435   1_556  S
O1412      C1744   1.287       .  A
O1413     Zr1421   2.432       .  S
O1413      C1744   1.288   1_554  A
C1414      O1742   1.287       .  A
C1414      O1743   1.288       .  A
C1414      C1546   1.492       .  S
Zr1415     O1746   2.436   1_554  S
Zr1415     O1417   2.434       .  S
Zr1415     O1753   2.368   1_554  S
Zr1415     O1754   2.371   1_554  S
Zr1415     O1427   2.372       .  S
Zr1415     O1425   2.370       .  S
O1416     Zr1745   2.436       .  S
O1416      H1436   0.990       .  S
O1416      H1441   0.990       .  S
O1417      H1437   0.990       .  S
Zr1418     O1419   2.433       .  S
Zr1418     O1424   2.371       .  S
Zr1418     O1423   2.369       .  S
O1419      H1435   0.990       .  S
O1420      H1434   0.990       .  S
O1420      H1444   0.990       .  S
Zr1421     O1737   2.425   1_554  S
Zr1421     O1754   2.383   1_554  S
Zr1421     O1427   2.386       .  S
Zr1422     O1740   2.421   1_554  S
Zr1422     O1758   2.382   1_454  S
O1423     Zr1745   2.368       .  S
O1423      H1431   0.966       .  S
O1424     Zr1745   2.371       .  S
O1424     Zr1751   2.383       .  S
O1426     Zr1728   2.372       .  S
O1426      H1430   0.966       .  S
O1427      H1432   0.966       .  S
O1428     Zr1728   2.370       .  S
O1428     Zr1752   2.382   1_655  S
O1445     Zr1457   2.443       .  S
O1445      C1447   1.289       .  A
O1446     Zr2143   2.422   1_545  S
O1446      C1447   1.286       .  A
C1447      C1522   1.483       .  S
O1448     Zr1460   2.436       .  S
O1448      C2110   1.287       .  A
O1449     Zr1484   2.425       .  S
O1449      C1450   1.287       .  A
C1450      O2108   1.287       .  A
C1450      C1579   1.491       .  S
O1451     Zr1460   2.439       .  S
O1451      C2113   1.288       .  A
O1452     Zr1483   2.419       .  S
O1452      C2113   1.285       .  A
C1453      O2111   1.288       .  A
C1453      O2112   1.285       .  A
C1453      C1594   1.484       .  S
O1454     Zr1457   2.444   1_556  S
O1454      C1456   1.290       .  A
O1455     Zr1484   2.422   1_545  S
O1455      C1456   1.286   1_554  A
C1456      C1543   1.491   1_556  S
Zr1457     O1458   2.434       .  S
Zr1457     O1789   2.435   1_554  S
Zr1457     O1463   2.370       .  S
Zr1457     O1464   2.370       .  S
Zr1457     O1817   2.369   1_554  S
Zr1457     O1819   2.373   1_554  S
O1458      H1501   0.990       .  S
O1459     Zr1787   2.435       .  S
O1459      H1500   0.990       .  S
O1459      H1504   0.990       .  S
Zr1460     O2121   2.435       .  S
Zr1460     O1462   2.436       .  S
Zr1460     O2124   2.371       .  S
Zr1460     O2123   2.368       .  S
Zr1460     O1488   2.369       .  S
Zr1460     O1490   2.370       .  S
O1461     Zr2120   2.435   1_545  S
O1461      H1502   0.990       .  S
O1461      H1505   0.990       .  S
O1462      H1495   0.990       .  S
O1463     Zr2120   2.368   1_545  S
O1463     Zr2143   2.380   1_545  S
O1464     Zr2120   2.371   1_545  S
O1464     Zr1484   2.386   1_545  S
O1464      H1491   0.966       .  S
O1465     Zr1477   2.446   1_545  S
O1465      C2127   1.290       .  A
O1466     Zr1814   2.420       .  S
O1466      C2127   1.286   1_565  A
C1467      O2125   1.290       .  A
C1467      O2126   1.286       .  A
C1467      C1567   1.487       .  S
O1468     Zr1480   2.431   1_556  S
O1468      C1800   1.286       .  A
O1469     Zr1483   2.428   1_556  S
O1469      C1800   1.287       .  A
C1470      O1798   1.286       .  A
C1470      O1799   1.287       .  A
C1470      C1510   1.488       .  S
O1471     Zr1480   2.436       .  S
O1471      C1803   1.287       .  A
O1472     Zr2144   2.424       .  S
O1472      C1803   1.287       .  A
C1473      O1801   1.287       .  A
C1473      O1802   1.287       .  A
C1473      C1534   1.481       .  S
O1474     Zr1477   2.448       .  S
O1474      C2136   1.289       .  A
O1475     Zr1813   2.416       .  S
O1475      C1476   1.284       .  A
C1476      O2134   1.289       .  A
C1476      C1558   1.466       .  S
Zr1477     O2138   2.435       .  S
Zr1477     O1479   2.434   1_565  S
Zr1477     O2145   2.374       .  S
Zr1477     O2146   2.373       .  S
Zr1477     O1489   2.370   1_565  S
Zr1477     O1487   2.372   1_565  S
O1478     Zr2137   2.435       .  S
O1478      H1498   0.990       .  S
O1478      H1503   0.990       .  S
O1479      H1499   0.990       .  S
Zr1480     O1811   2.434   1_554  S
Zr1480     O1482   2.434       .  S
Zr1480     O1816   2.371   1_554  S
Zr1480     O1815   2.371   1_554  S
Zr1480     O1490   2.367       .  S
Zr1480     O1488   2.368       .  S
O1481     Zr1810   2.434       .  S
O1481      H1497   0.990       .  S
O1482      H1496   0.990       .  S
O1482      H1506   0.990       .  S
Zr1483     O2106   2.422       .  S
Zr1483     O1805   2.416   1_554  S
Zr1483     O2123   2.380       .  S
Zr1483     O1816   2.382   1_554  S
Zr1483     O1488   2.381       .  S
Zr1483     O2479   2.386   1_554  S
Zr1484     O1796   2.420   1_554  S
Zr1484     O2132   2.424       .  S
Zr1484     O2475   2.386   1_554  S
Zr1484     O1817   2.382   1_564  S
Zr1484     O2150   2.380       .  S
O1485     Zr2137   2.374       .  S
O1485     Zr1810   2.371       .  S
O1485     Zr2474   2.386       .  S
O1485      H1493   0.966       .  S
O1486     Zr2137   2.373       .  S
O1486     Zr1810   2.371       .  S
O1486     Zr1813   2.382       .  S
O1487     Zr1787   2.369       .  S
O1487     Zr1814   2.382   1_545  S
O1488      H1492   0.966       .  S
O1489     Zr1787   2.373       .  S
O1489     Zr2473   2.386   1_545  S
O1489      H1494   0.966       .  S
O1490     Zr2144   2.380       .  S
C1507      C1508   1.404   1_556  A
C1507      C1842   1.414       .  A
C1508      C1509   1.395       .  A
C1508      H1513   1.083       .  S
C1509      C1840   1.413   1_554  A
C1509      O1514   1.372       .  S
C1510      C1839   1.413       .  A
C1510      C1511   1.407       .  A
C1511      C1512   1.403       .  A
C1511      H1515   1.083       .  S
C1512      C1837   1.414       .  A
C1512      O1516   1.372       .  S
O1514      H1518   0.992   1_554  S
O1516      H1517   0.992       .  S
C1519      C1520   1.406       .  A
C1519      C1854   1.411   1_554  A
C1520      C1521   1.403       .  A
C1520      H1525   1.084       .  S
C1521      C1522   1.412       .  A
C1521      O1526   1.372       .  S
C1522      C1853   1.404   1_554  A
C1523      C1852   1.404       .  A
C1523      C1524   1.397       .  A
C1523      H1527   1.084       .  S
C1524      C1849   1.411       .  A
C1524      O1528   1.372       .  S
O1526      H1530   0.992       .  S
O1528      H1529   0.992       .  S
C1531      C1862   1.404       .  A
C1531      C1536   1.412       .  A
C1532      C1861   1.404       .  A
C1532      C1533   1.398       .  A
C1532      H1537   1.084       .  S
C1533      C1864   1.411       .  A
C1533      O1538   1.372       .  S
C1534      C1863   1.411       .  A
C1534      C1535   1.405       .  A
C1535      C1536   1.402       .  A
C1535      H1539   1.083       .  S
C1536      O1540   1.372       .  S
O1538      H1542   0.992       .  S
O1540      H1541   0.992       .  S
C1543      C1544   1.405       .  A
C1543      C1878   1.415   1_554  A
C1544      C1545   1.396       .  A
C1544      H1549   1.083       .  S
C1545      C1876   1.414   1_554  A
C1545      O1550   1.372       .  S
C1546      C1875   1.414       .  A
C1546      C1547   1.408       .  A
C1547      C1548   1.404       .  A
C1547      H1551   1.083       .  S
C1548      C1873   1.415       .  A
C1548      O1552   1.372       .  S
O1550      H1554   0.992   1_554  S
O1552      H1553   0.992       .  S
C1555      C2216   1.402       .  A
C1555      C1560   1.405   1_565  A
C1556      C2215   1.402       .  A
C1556      C1557   1.401       .  A
C1556      H1561   1.084       .  S
C1557      C1558   1.406       .  A
C1557      O1562   1.372       .  S
C1558      C2219   1.401       .  A
C1559      C2218   1.401   1_545  A
C1559      C1560   1.400       .  A
C1559      H1563   1.084       .  S
C1560      O1564   1.372       .  S
O1562      H1566   0.992       .  S
O1564      H1565   0.991       .  S
C1567      C2228   1.405       .  A
C1567      C1572   1.413       .  A
C1568      C2227   1.405       .  A
C1568      C1569   1.398       .  A
C1568      H1573   1.084       .  S
C1569      C2230   1.412       .  A
C1569      O1574   1.372       .  S
C1570      C2229   1.412       .  A
C1570      C1571   1.406       .  A
C1571      C1572   1.402       .  A
C1571      H1575   1.084       .  S
C1572      O1576   1.372       .  S
O1574      H1578   0.992       .  S
O1576      H1577   0.992       .  S
C1579      C1580   1.408       .  A
C1579      C2244   1.414       .  A
C1580      C2241   1.403       .  A
C1580      H1585   1.083       .  S
C1581      C2240   1.403       .  A
C1581      C1582   1.414       .  A
C1581      O1586   1.371       .  S
C1582      C1583   1.406       .  A
C1583      C1584   1.395       .  A
C1583      H1587   1.083       .  S
C1584      C2239   1.414       .  A
C1584      O1588   1.372       .  S
O1586      H2250   0.992       .  S
O1588      H1589   0.992       .  S
H1590      O2246   0.992   1_545  S
C1591      C2252   1.407   1_545  A
C1591      C1596   1.411       .  A
C1592      C2251   1.407       .  A
C1592      C1593   1.400       .  A
C1592      H1597   1.084       .  S
C1593      C2254   1.412       .  A
C1593      O1598   1.372       .  S
C1594      C2253   1.412   1_545  A
C1594      C1595   1.405       .  A
C1595      C1596   1.398       .  A
C1595      H1599   1.084       .  S
C1596      O1600   1.372       .  S
O1598      H1602   0.992       .  S
O1600      H1601   0.992       .  S
C1603      C1608   1.412   1_455  A
C1604      C1605   1.398       .  A
C1604      H1609   1.084       .  S
C1605      C1606   1.411       .  A
C1605      O1610   1.372       .  S
C1607      C1608   1.401       .  A
C1607      H1611   1.084       .  S
C1608      O1612   1.372       .  S
O1610      H1614   0.992       .  S
O1612      H1613   0.992       .  S
C1615      C1616   1.405       .  A
C1616      C1617   1.396       .  A
C1616      H1621   1.084       .  S
C1617      C1618   1.412       .  A
C1617      O1622   1.372       .  S
C1619      C1620   1.402       .  A
C1619      H1623   1.083       .  S
C1620      O1624   1.372       .  S
O1622      H1626   0.992       .  S
O1624      H1625   0.992   1_655  S
C1627      C1628   1.404   1_455  A
C1628      C1629   1.398       .  A
C1628      H1633   1.084       .  S
C1629      O1634   1.372       .  S
C1630      C1631   1.406       .  A
C1631      C1632   1.403       .  A
C1631      H1635   1.084       .  S
C1632      O1636   1.372       .  S
O1634      H1638   0.992       .  S
O1636      H1637   0.992       .  S
C1639      C1640   1.406       .  A
C1639      C1644   1.414       .  A
C1640      C1641   1.396       .  A
C1640      H1645   1.083       .  S
C1641      C1642   1.414       .  A
C1641      O1646   1.372       .  S
C1642      C1643   1.408       .  A
C1643      C1644   1.403       .  A
C1643      H1647   1.083       .  S
C1644      O1648   1.372       .  S
O1646      H1650   0.992   1_655  S
O1648      H1649   0.991   1_655  S
O1651     Zr1663   2.444   1_545  S
O1651      C1653   1.289       .  A
O1652      C1653   1.286       .  A
C1653      C1921   1.485       .  S
O1654     Zr1666   2.445       .  S
O1654      C1656   1.289       .  A
O1655     Zr2350   2.417   1_545  S
O1655      C1656   1.285       .  A
C1656      C1933   1.482       .  S
O1657     Zr1666   2.441   1_655  S
O1657      C1659   1.289       .  A
O1658     Zr1689   2.423   1_545  S
C1659      C1969   1.492       .  S
O1660     Zr1663   2.443       .  S
O1660      C1662   1.288       .  A
O1661     Zr1690   2.421   1_655  S
O1661      C2322   1.285       .  A
C1662      O2321   1.285       .  A
C1662      C1885   1.466       .  S
Zr1663     O1664   2.434   1_565  S
Zr1663     O2325   2.435       .  S
Zr1663     O1669   2.369   1_565  S
Zr1663     O1670   2.371   1_565  S
Zr1663     O2353   2.372       .  S
Zr1663     O2355   2.372       .  S
O1664      H1707   0.990       .  S
O1665     Zr2323   2.435       .  S
O1665      H1706   0.990       .  S
O1665      H1710   0.990       .  S
Zr1666     O1667   2.435   1_455  S
Zr1666     O1670   2.372   1_455  S
Zr1666     O1669   2.369   1_455  S
O1667      H1708   0.990       .  S
O1667      H1711   0.990       .  S
O1668      H1701   0.990       .  S
O1670     Zr2350   2.386   1_645  S
O1670      H1697   0.966       .  S
O1671     Zr1683   2.443       .  S
O1671      C1673   1.289       .  A
O1672     Zr1690   2.418       .  S
C1673      C1945   1.487       .  S
O1674     Zr1686   2.435       .  S
O1674      C1676   1.288       .  A
O1675     Zr1689   2.424       .  S
O1675      C2336   1.286       .  A
C1676      O2335   1.286       .  A
C1676      C1912   1.490       .  S
O1677     Zr1686   2.438       .  S
O1677      C1679   1.288       .  A
O1678      C1679   1.287       .  A
C1679      C1900   1.487       .  S
O1680     Zr1683   2.441       .  S
O1680      C1682   1.288       .  A
O1681     Zr2349   2.423       .  S
O1681      C1682   1.286       .  A
C1682      C1960   1.480       .  S
Zr1683     O1684   2.435       .  S
Zr1683     O1691   2.372       .  S
Zr1683     O1692   2.372       .  S
O1684      H1704   0.990       .  S
O1684      H1709   0.990       .  S
O1685      H1705   0.990       .  S
Zr1686     O1687   2.434       .  S
Zr1686     O2348   2.434       .  S
Zr1686     O1692   2.372       .  S
Zr1686     O1691   2.370       .  S
Zr1686     O2356   2.368       .  S
Zr1686     O2354   2.368       .  S
O1687      H1703   0.990       .  S
O1688     Zr2346   2.434   1_545  S
O1688      H1702   0.990       .  S
O1688      H1712   0.990       .  S
Zr1689     O2341   2.423       .  S
Zr1689     O2352   2.381       .  S
Zr1689     O1694   2.383   1_565  S
Zr1690     O2315   2.417       .  S
Zr1690     O2330   2.386   1_455  S
Zr1690     O1693   2.381   1_455  S
O1691      H1699   0.966       .  S
O1692     Zr2349   2.381       .  S
O1693     Zr2323   2.372       .  S
O1694     Zr2346   2.368   1_545  S
O1694      H1698   0.966       .  S
O1695     Zr2323   2.372       .  S
O1695      H1700   0.966       .  S
O1696     Zr2346   2.368   1_545  S
O1713     Zr1725   2.439   1_655  S
O1713      C1715   1.288       .  A
O1714     Zr1751   2.424       .  S
C1715      C1972   1.492       .  S
O1716     Zr1728   2.443       .  S
O1716      C1718   1.290       .  A
O1717     Zr1752   2.418   1_655  S
O1717      C1718   1.285       .  A
C1718      C1837   1.488       .  S
O1719     Zr1728   2.440       .  S
O1719      C1721   1.288       .  A
O1720      C1721   1.287       .  A
C1721      C1849   1.483       .  S
O1722     Zr1725   2.441       .  S
O1722      C1724   1.289       .  A
O1723     Zr1752   2.423       .  S
O1723      C1724   1.286       .  A
C1724      C1957   1.479       .  S
Zr1725     O1726   2.433   1_455  S
Zr1725     O1731   2.370   1_455  S
Zr1725     O1732   2.370   1_455  S
O1726      H1769   0.990       .  S
O1727      H1768   0.990       .  S
O1727      H1772   0.990       .  S
Zr1728     O1729   2.436       .  S
Zr1728     O1732   2.369       .  S
Zr1728     O1731   2.370       .  S
O1729      H1770   0.990       .  S
O1729      H1773   0.990       .  S
O1730      H1763   0.990       .  S
O1732     Zr1752   2.385   1_655  S
O1732      H1759   0.966       .  S
O1733     Zr1745   2.445       .  S
C1735      C1861   1.481       .  S
O1736     Zr1748   2.437       .  S
O1736      C1738   1.288       .  A
O1737      C1738   1.287       .  A
C1738      C1936   1.482       .  S
O1739     Zr1748   2.439       .  S
O1739      C1741   1.288       .  A
C1741      C1948   1.487       .  S
O1742     Zr1745   2.435       .  S
O1743     Zr1751   2.432       .  S
C1744      C1876   1.492       .  S
Zr1745     O1747   2.434       .  S
Zr1745     O1757   2.372       .  S
Zr1745     O1755   2.370       .  S
O1746      H1766   0.990       .  S
O1746      H1771   0.990       .  S
O1747      H1767   0.990       .  S
Zr1748     O1749   2.433       .  S
Zr1748     O1754   2.371       .  S
Zr1748     O1753   2.369       .  S
O1749      H1765   0.990       .  S
O1750      H1764   0.990       .  S
O1750      H1774   0.990       .  S
Zr1751     O1757   2.386       .  S
O1753      H1761   0.966       .  S
O1756      H1760   0.966       .  S
O1757      H1762   0.966       .  S
O1775     Zr1787   2.443       .  S
O1775      C1777   1.289       .  A
O1776     Zr2473   2.422   1_545  S
O1776      C1777   1.286       .  A
C1777      C1852   1.483       .  S
O1778     Zr1790   2.436       .  S
O1778      C2440   1.287       .  A
O1779     Zr1814   2.425       .  S
O1779      C1780   1.287       .  A
C1780      O2438   1.287       .  A
C1780      C1909   1.491       .  S
O1781     Zr1790   2.439       .  S
O1781      C2443   1.288       .  A
O1782     Zr1813   2.419       .  S
O1782      C2443   1.285       .  A
C1783      O2441   1.288       .  A
C1783      O2442   1.285       .  A
C1783      C1924   1.484       .  S
O1784     Zr1787   2.444       .  S
O1784      C1786   1.290       .  A
O1785     Zr1814   2.422   1_545  S
O1785      C1786   1.286       .  A
C1786      C1873   1.491       .  S
Zr1787     O1788   2.434       .  S
Zr1787     O1793   2.370       .  S
Zr1787     O1794   2.370       .  S
O1788      H1831   0.990       .  S
O1789      H1830   0.990       .  S
O1789      H1834   0.990       .  S
Zr1790     O2451   2.435       .  S
Zr1790     O1792   2.436       .  S
Zr1790     O2454   2.371       .  S
Zr1790     O2453   2.368       .  S
Zr1790     O1818   2.369       .  S
Zr1790     O1820   2.370       .  S
O1791     Zr2450   2.435   1_545  S
O1791      H1832   0.990       .  S
O1791      H1835   0.990       .  S
O1792      H1825   0.990       .  S
O1793     Zr2450   2.368   1_545  S
O1793     Zr2473   2.380   1_545  S
O1794     Zr2450   2.371   1_545  S
O1794     Zr1814   2.386   1_545  S
O1794      H1821   0.966       .  S
O1795     Zr1807   2.446   1_545  S
O1795      C2457   1.290       .  A
O1796      C2457   1.286   1_565  A
C1797      O2455   1.290       .  A
C1797      O2456   1.286       .  A
C1797      C1897   1.487       .  S
O1798     Zr1810   2.431       .  S
O1799     Zr1813   2.428       .  S
C1800      C1840   1.488       .  S
O1801     Zr1810   2.436       .  S
O1802     Zr2474   2.424       .  S
C1803      C1864   1.481       .  S
O1804     Zr1807   2.448       .  S
O1804      C2466   1.289       .  A
O1805      C1806   1.284       .  A
C1806      O2464   1.289       .  A
C1806      C1888   1.466       .  S
Zr1807     O2468   2.435       .  S
Zr1807     O1809   2.434   1_565  S
Zr1807     O2475   2.374       .  S
Zr1807     O2476   2.373       .  S
Zr1807     O1819   2.370   1_565  S
Zr1807     O1817   2.372   1_565  S
O1808     Zr2467   2.435       .  S
O1808      H1828   0.990       .  S
O1808      H1833   0.990       .  S
O1809      H1829   0.990       .  S
Zr1810     O1812   2.434       .  S
Zr1810     O1820   2.367       .  S
Zr1810     O1818   2.368       .  S
O1811      H1827   0.990       .  S
O1812      H1826   0.990       .  S
O1812      H1836   0.990       .  S
Zr1813     O2436   2.422       .  S
Zr1813     O2453   2.380       .  S
Zr1813     O1818   2.381       .  S
Zr1813     O2149   2.386       .  S
Zr1814     O2462   2.424       .  S
Zr1814     O2145   2.386       .  S
Zr1814     O2480   2.380       .  S
O1815     Zr2467   2.374       .  S
O1815     Zr2144   2.386   1_556  S
O1815      H1823   0.966       .  S
O1816     Zr2467   2.373       .  S
O1818      H1822   0.966       .  S
O1819     Zr2143   2.386   1_546  S
O1819      H1824   0.966       .  S
O1820     Zr2474   2.380       .  S
C1837      C1838   1.404       .  A
C1838      C1839   1.395       .  A
C1838      H1843   1.083       .  S
C1839      O1844   1.372       .  S
C1840      C1841   1.407       .  A
C1841      C1842   1.403       .  A
C1841      H1845   1.083       .  S
C1842      O1846   1.372       .  S
O1844      H1848   0.992       .  S
O1846      H1847   0.992   1_556  S
C1849      C1850   1.406       .  A
C1850      C1851   1.403       .  A
C1850      H1855   1.084       .  S
C1851      C1852   1.412       .  A
C1851      O1856   1.372       .  S
C1853      C1854   1.397       .  A
C1853      H1857   1.084       .  S
C1854      O1858   1.372       .  S
O1856      H1860   0.992       .  S
O1858      H1859   0.992       .  S
C1861      C1866   1.412   1_554  A
C1862      C1863   1.398       .  A
C1862      H1867   1.084       .  S
C1863      O1868   1.372       .  S
C1864      C1865   1.405   1_554  A
C1865      C1866   1.402       .  A
C1865      H1869   1.083       .  S
C1866      O1870   1.372       .  S
O1868      H1872   0.992       .  S
O1870      H1871   0.992       .  S
C1873      C1874   1.405       .  A
C1874      C1875   1.396       .  A
C1874      H1879   1.083       .  S
C1875      O1880   1.372       .  S
C1876      C1877   1.408       .  A
C1877      C1878   1.404       .  A
C1877      H1881   1.083       .  S
C1878      O1882   1.372       .  S
O1880      H1884   0.992       .  S
O1882      H1883   0.992   1_556  S
C1885      C2546   1.402       .  A
C1885      C1890   1.405   1_565  A
C1886      C2545   1.402       .  A
C1886      C1887   1.401       .  A
C1886      H1891   1.084       .  S
C1887      C1888   1.406       .  A
C1887      O1892   1.372       .  S
C1888      C2549   1.401       .  A
C1889      C2548   1.401   1_545  A
C1889      C1890   1.400       .  A
C1889      H1893   1.084       .  S
C1890      O1894   1.372       .  S
O1892      H1896   0.992       .  S
O1894      H1895   0.991       .  S
C1897      C2558   1.405       .  A
C1897      C1902   1.413       .  A
C1898      C2557   1.405       .  A
C1898      C1899   1.398       .  A
C1898      H1903   1.084       .  S
C1899      C2560   1.412       .  A
C1899      O1904   1.372       .  S
C1900      C2559   1.412       .  A
C1900      C1901   1.406       .  A
C1901      C1902   1.402       .  A
C1901      H1905   1.084       .  S
C1902      O1906   1.372       .  S
O1904      H1908   0.992       .  S
O1906      H1907   0.992       .  S
C1909      C1910   1.408       .  A
C1909      C2574   1.414       .  A
C1910      C2571   1.403       .  A
C1910      H1915   1.083       .  S
C1911      C2570   1.403       .  A
C1911      C1912   1.414       .  A
C1911      O1916   1.371       .  S
C1912      C1913   1.406       .  A
C1913      C1914   1.395       .  A
C1913      H1917   1.083       .  S
C1914      C2569   1.414       .  A
C1914      O1918   1.372       .  S
O1916      H2580   0.992       .  S
O1918      H1919   0.992       .  S
H1920      O2576   0.992   1_545  S
C1921      C2582   1.407   1_545  A
C1921      C1926   1.411       .  A
C1922      C2581   1.407       .  A
C1922      C1923   1.400       .  A
C1922      H1927   1.084       .  S
C1923      C2584   1.412       .  A
C1923      O1928   1.372       .  S
C1924      C2583   1.412   1_545  A
C1924      C1925   1.405       .  A
C1925      C1926   1.398       .  A
C1925      H1929   1.084       .  S
C1926      O1930   1.372       .  S
O1928      H1932   0.992       .  S
O1930      H1931   0.992       .  S
C1933      C1938   1.412   1_455  A
C1934      C1935   1.398       .  A
C1934      H1939   1.084       .  S
C1935      C1936   1.411       .  A
C1935      O1940   1.372       .  S
C1937      C1938   1.401       .  A
C1937      H1941   1.084       .  S
C1938      O1942   1.372       .  S
O1940      H1944   0.992       .  S
O1942      H1943   0.992       .  S
C1945      C1946   1.405       .  A
C1946      C1947   1.396       .  A
C1946      H1951   1.084       .  S
C1947      C1948   1.412       .  A
C1947      O1952   1.372       .  S
C1949      C1950   1.402       .  A
C1949      H1953   1.083       .  S
C1950      O1954   1.372       .  S
O1952      H1956   0.992       .  S
O1954      H1955   0.992   1_655  S
C1957      C1958   1.404   1_455  A
C1958      C1959   1.398       .  A
C1958      H1963   1.084       .  S
C1959      O1964   1.372       .  S
C1960      C1961   1.406       .  A
C1961      C1962   1.403       .  A
C1961      H1965   1.084       .  S
C1962      O1966   1.372       .  S
O1964      H1968   0.992       .  S
O1966      H1967   0.992       .  S
C1969      C1970   1.406       .  A
C1969      C1974   1.414       .  A
C1970      C1971   1.396       .  A
C1970      H1975   1.083       .  S
C1971      C1972   1.414       .  A
C1971      O1976   1.372       .  S
C1972      C1973   1.408       .  A
C1973      C1974   1.403       .  A
C1973      H1977   1.083       .  S
C1974      O1978   1.372       .  S
O1976      H1980   0.992   1_655  S
O1978      H1979   0.991   1_655  S
O1981     Zr1993   2.444       .  S
O1981      C1983   1.289       .  A
O1982      C1983   1.286       .  A
C1983      C2251   1.485       .  S
O1984     Zr1996   2.445       .  S
O1984      C1986   1.289       .  A
O1985      C1986   1.285       .  A
C1986      C2263   1.482       .  S
O1987     Zr1996   2.441   1_655  S
O1987      C1989   1.289       .  A
O1988     Zr2019   2.423       .  S
C1989      C2299   1.492       .  S
O1990     Zr1993   2.443       .  S
O1990      C1992   1.288       .  A
O1991     Zr2020   2.421   1_655  S
C1992      C2215   1.466       .  S
Zr1993     O1994   2.434       .  S
Zr1993     O1999   2.369       .  S
Zr1993     O2000   2.371       .  S
O1994      H2037   0.990       .  S
O1995      H2036   0.990       .  S
O1995      H2040   0.990       .  S
Zr1996     O1997   2.435   1_455  S
Zr1996     O2000   2.372   1_455  S
Zr1996     O1999   2.369   1_455  S
O1997      H2038   0.990       .  S
O1997      H2041   0.990       .  S
O1998      H2031   0.990       .  S
O2000      H2027   0.966       .  S
O2001     Zr2013   2.443       .  S
O2001      C2003   1.289       .  A
O2002     Zr2020   2.418       .  S
C2003      C2275   1.487       .  S
O2004     Zr2016   2.435       .  S
O2004      C2006   1.288       .  A
O2005     Zr2019   2.424       .  S
C2006      C2242   1.490       .  S
O2007     Zr2016   2.438   1_545  S
O2007      C2009   1.288       .  A
O2008      C2009   1.287       .  A
C2009      C2230   1.487       .  S
O2010     Zr2013   2.441       .  S
O2010      C2012   1.288       .  A
O2011      C2012   1.286       .  A
C2012      C2290   1.480       .  S
Zr2013     O2014   2.435       .  S
Zr2013     O2021   2.372       .  S
Zr2013     O2022   2.372       .  S
O2014      H2034   0.990       .  S
O2014      H2039   0.990       .  S
O2015      H2035   0.990       .  S
Zr2016     O2017   2.434       .  S
Zr2016     O2022   2.372       .  S
Zr2016     O2021   2.370       .  S
O2017      H2033   0.990       .  S
O2018      H2032   0.990       .  S
O2018      H2042   0.990       .  S
Zr2019     O2024   2.383       .  S
Zr2020     O2023   2.381   1_455  S
O2021      H2029   0.966       .  S
O2024      H2028   0.966       .  S
O2025      H2030   0.966       .  S
O2043     Zr2055   2.439   1_655  S
O2043      C2045   1.288       .  A
O2044     Zr2081   2.424       .  S
C2045      C2302   1.492       .  S
O2046     Zr2058   2.443       .  S
O2046      C2048   1.290   1_554  A
O2047     Zr2082   2.418   1_655  S
O2047      C2048   1.285   1_554  A
C2048      C2167   1.488       .  S
O2049     Zr2058   2.440       .  S
O2049      C2051   1.288       .  A
O2050      C2051   1.287       .  A
C2051      C2179   1.483       .  S
O2052     Zr2055   2.441       .  S
O2052      C2054   1.289       .  A
O2053     Zr2082   2.423       .  S
O2053      C2054   1.286       .  A
C2054      C2287   1.479       .  S
Zr2055     O2056   2.433   1_455  S
Zr2055     O2061   2.370   1_455  S
Zr2055     O2062   2.370   1_455  S
O2056      H2099   0.990       .  S
O2057      H2098   0.990       .  S
O2057      H2102   0.990       .  S
Zr2058     O2059   2.436       .  S
Zr2058     O2390   2.435   1_554  S
Zr2058     O2062   2.369       .  S
Zr2058     O2061   2.370       .  S
Zr2058     O2416   2.372   1_554  S
Zr2058     O2418   2.370   1_554  S
O2059      H2100   0.990       .  S
O2059      H2103   0.990       .  S
O2060     Zr2388   2.435       .  S
O2060      H2093   0.990       .  S
O2062     Zr2082   2.385   1_655  S
O2062      H2089   0.966       .  S
O2063     Zr2075   2.445       .  S
O2063      C2395   1.289       .  A
O2064      C2395   1.285   1_556  A
C2065      O2393   1.289       .  A
C2065      O2394   1.285       .  A
C2065      C2191   1.481       .  S
O2066     Zr2078   2.437       .  S
O2066      C2068   1.288       .  A
O2067     Zr2411   2.425       .  S
O2067      C2068   1.287       .  A
C2068      C2266   1.482       .  S
O2069     Zr2078   2.439       .  S
O2069      C2071   1.288       .  A
O2070     Zr2412   2.421       .  S
C2071      C2278   1.487       .  S
O2072     Zr2075   2.435   1_556  S
O2072      C2404   1.287       .  A
O2073     Zr2081   2.432       .  S
O2073      C2404   1.288   1_554  A
C2074      O2402   1.287       .  A
C2074      O2403   1.288       .  A
C2074      C2206   1.492       .  S
Zr2075     O2406   2.436   1_554  S
Zr2075     O2077   2.434       .  S
Zr2075     O2413   2.368   1_554  S
Zr2075     O2414   2.371   1_554  S
Zr2075     O2087   2.372       .  S
Zr2075     O2085   2.370       .  S
O2076     Zr2405   2.436       .  S
O2076      H2096   0.990       .  S
O2076      H2101   0.990       .  S
O2077      H2097   0.990       .  S
Zr2078     O2079   2.433       .  S
Zr2078     O2084   2.371       .  S
Zr2078     O2083   2.369       .  S
O2079      H2095   0.990       .  S
O2080      H2094   0.990       .  S
O2080      H2104   0.990       .  S
Zr2081     O2397   2.425   1_554  S
Zr2081     O2414   2.383   1_554  S
Zr2081     O2087   2.386       .  S
Zr2082     O2400   2.421   1_554  S
Zr2082     O2418   2.382   1_454  S
O2083     Zr2405   2.368       .  S
O2083      H2091   0.966       .  S
O2084     Zr2405   2.371       .  S
O2084     Zr2411   2.383       .  S
O2086     Zr2388   2.372       .  S
O2086      H2090   0.966       .  S
O2087      H2092   0.966       .  S
O2088     Zr2388   2.370       .  S
O2088     Zr2412   2.382   1_655  S
O2105     Zr2117   2.443       .  S
O2105      C2107   1.289       .  A
O2106      C2107   1.286       .  A
C2107      C2182   1.483       .  S
O2108     Zr2120   2.436       .  S
O2109     Zr2144   2.425       .  S
O2109      C2110   1.287       .  A
C2110      C2239   1.491       .  S
O2111     Zr2120   2.439   1_545  S
O2112     Zr2143   2.419   1_545  S
C2113      C2254   1.484       .  S
O2114     Zr2117   2.444   1_556  S
O2114      C2116   1.290       .  A
O2115     Zr2144   2.422       .  S
O2115      C2116   1.286   1_554  A
C2116      C2203   1.491   1_556  S
Zr2117     O2118   2.434       .  S
Zr2117     O2449   2.435   1_554  S
Zr2117     O2123   2.370       .  S
Zr2117     O2124   2.370       .  S
Zr2117     O2477   2.369   1_554  S
Zr2117     O2479   2.373   1_554  S
O2118      H2161   0.990       .  S
O2119     Zr2447   2.435       .  S
O2119      H2160   0.990       .  S
O2119      H2164   0.990       .  S
Zr2120     O2122   2.436       .  S
Zr2120     O2148   2.369       .  S
Zr2120     O2150   2.370       .  S
O2121      H2162   0.990       .  S
O2121      H2165   0.990       .  S
O2122      H2155   0.990       .  S
O2124     Zr2144   2.386       .  S
O2124      H2151   0.966       .  S
O2125     Zr2137   2.446       .  S
O2126     Zr2474   2.420       .  S
C2127      C2227   1.487       .  S
O2128     Zr2140   2.431   1_556  S
O2128      C2460   1.286       .  A
O2129     Zr2143   2.428   1_556  S
O2129      C2460   1.287       .  A
C2130      O2458   1.286       .  A
C2130      O2459   1.287       .  A
C2130      C2170   1.488       .  S
O2131     Zr2140   2.436       .  S
O2131      C2463   1.287       .  A
O2132      C2463   1.287       .  A
C2133      O2461   1.287       .  A
C2133      O2462   1.287       .  A
C2133      C2194   1.481       .  S
O2134     Zr2137   2.448       .  S
O2135     Zr2473   2.416       .  S
O2135      C2136   1.284       .  A
C2136      C2218   1.466       .  S
Zr2137     O2139   2.434       .  S
Zr2137     O2149   2.370       .  S
Zr2137     O2147   2.372       .  S
O2138      H2158   0.990       .  S
O2138      H2163   0.990       .  S
O2139      H2159   0.990       .  S
Zr2140     O2471   2.434   1_554  S
Zr2140     O2142   2.434       .  S
Zr2140     O2476   2.371   1_554  S
Zr2140     O2475   2.371   1_554  S
Zr2140     O2150   2.367       .  S
Zr2140     O2148   2.368       .  S
O2141     Zr2470   2.434       .  S
O2141      H2157   0.990       .  S
O2142      H2156   0.990       .  S
O2142      H2166   0.990       .  S
Zr2143     O2465   2.416   1_554  S
Zr2143     O2476   2.382   1_554  S
Zr2143     O2148   2.381       .  S
Zr2144     O2456   2.420   1_554  S
Zr2144     O2477   2.382   1_554  S
O2145     Zr2470   2.371       .  S
O2145      H2153   0.966       .  S
O2146     Zr2470   2.371       .  S
O2146     Zr2473   2.382       .  S
O2147     Zr2447   2.369       .  S
O2147     Zr2474   2.382       .  S
O2148      H2152   0.966       .  S
O2149     Zr2447   2.373       .  S
O2149      H2154   0.966       .  S
C2167      C2168   1.404   1_556  A
C2167      C2502   1.414       .  A
C2168      C2169   1.395       .  A
C2168      H2173   1.083       .  S
C2169      C2500   1.413   1_554  A
C2169      O2174   1.372       .  S
C2170      C2499   1.413       .  A
C2170      C2171   1.407       .  A
C2171      C2172   1.403       .  A
C2171      H2175   1.083       .  S
C2172      C2497   1.414       .  A
C2172      O2176   1.372       .  S
O2174      H2178   0.992   1_554  S
O2176      H2177   0.992       .  S
C2179      C2180   1.406       .  A
C2179      C2514   1.411   1_554  A
C2180      C2181   1.403       .  A
C2180      H2185   1.084       .  S
C2181      C2182   1.412       .  A
C2181      O2186   1.372       .  S
C2182      C2513   1.404   1_554  A
C2183      C2512   1.404       .  A
C2183      C2184   1.397       .  A
C2183      H2187   1.084       .  S
C2184      C2509   1.411       .  A
C2184      O2188   1.372       .  S
O2186      H2190   0.992       .  S
O2188      H2189   0.992       .  S
C2191      C2522   1.404       .  A
C2191      C2196   1.412       .  A
C2192      C2521   1.404       .  A
C2192      C2193   1.398       .  A
C2192      H2197   1.084       .  S
C2193      C2524   1.411       .  A
C2193      O2198   1.372       .  S
C2194      C2523   1.411       .  A
C2194      C2195   1.405       .  A
C2195      C2196   1.402       .  A
C2195      H2199   1.083       .  S
C2196      O2200   1.372       .  S
O2198      H2202   0.992       .  S
O2200      H2201   0.992       .  S
C2203      C2204   1.405       .  A
C2203      C2538   1.415   1_554  A
C2204      C2205   1.396       .  A
C2204      H2209   1.083       .  S
C2205      C2536   1.414   1_554  A
C2205      O2210   1.372       .  S
C2206      C2535   1.414       .  A
C2206      C2207   1.408       .  A
C2207      C2208   1.404       .  A
C2207      H2211   1.083       .  S
C2208      C2533   1.415       .  A
C2208      O2212   1.372       .  S
O2210      H2214   0.992   1_554  S
O2212      H2213   0.992       .  S
C2215      C2220   1.405       .  A
C2216      C2217   1.401       .  A
C2216      H2221   1.084       .  S
C2217      C2218   1.406       .  A
C2217      O2222   1.372       .  S
C2219      C2220   1.400       .  A
C2219      H2223   1.084       .  S
C2220      O2224   1.372       .  S
O2222      H2226   0.992       .  S
O2224      H2225   0.991       .  S
C2227      C2232   1.413   1_545  A
C2228      C2229   1.398       .  A
C2228      H2233   1.084       .  S
C2229      O2234   1.372       .  S
C2230      C2231   1.406   1_545  A
C2231      C2232   1.402       .  A
C2231      H2235   1.084       .  S
C2232      O2236   1.372       .  S
O2234      H2238   0.992       .  S
O2236      H2237   0.992       .  S
C2239      C2240   1.408       .  A
C2240      H2245   1.083       .  S
C2241      C2242   1.414       .  A
C2241      O2246   1.371       .  S
C2242      C2243   1.406       .  A
C2243      C2244   1.395       .  A
C2243      H2247   1.083       .  S
C2244      O2248   1.372       .  S
O2248      H2249   0.992   1_565  S
C2251      C2256   1.411       .  A
C2252      C2253   1.400       .  A
C2252      H2257   1.084       .  S
C2253      O2258   1.372       .  S
C2254      C2255   1.405       .  A
C2255      C2256   1.398       .  A
C2255      H2259   1.084       .  S
C2256      O2260   1.372       .  S
O2258      H2262   0.992       .  S
O2260      H2261   0.992       .  S
C2263      C2268   1.412   1_455  A
C2264      C2265   1.398       .  A
C2264      H2269   1.084       .  S
C2265      C2266   1.411       .  A
C2265      O2270   1.372       .  S
C2267      C2268   1.401       .  A
C2267      H2271   1.084       .  S
C2268      O2272   1.372       .  S
O2270      H2274   0.992       .  S
O2272      H2273   0.992       .  S
C2275      C2276   1.405       .  A
C2276      C2277   1.396       .  A
C2276      H2281   1.084       .  S
C2277      C2278   1.412       .  A
C2277      O2282   1.372       .  S
C2279      C2280   1.402       .  A
C2279      H2283   1.083       .  S
C2280      O2284   1.372       .  S
O2282      H2286   0.992       .  S
O2284      H2285   0.992   1_655  S
C2287      C2288   1.404   1_455  A
C2288      C2289   1.398       .  A
C2288      H2293   1.084       .  S
C2289      O2294   1.372       .  S
C2290      C2291   1.406       .  A
C2291      C2292   1.403       .  A
C2291      H2295   1.084       .  S
C2292      O2296   1.372       .  S
O2294      H2298   0.992       .  S
O2296      H2297   0.992       .  S
C2299      C2300   1.406       .  A
C2299      C2304   1.414       .  A
C2300      C2301   1.396       .  A
C2300      H2305   1.083       .  S
C2301      C2302   1.414       .  A
C2301      O2306   1.372       .  S
C2302      C2303   1.408       .  A
C2303      C2304   1.403       .  A
C2303      H2307   1.083       .  S
C2304      O2308   1.372       .  S
O2306      H2310   0.992   1_655  S
O2308      H2309   0.991   1_655  S
O2311     Zr2323   2.444       .  S
O2311      C2313   1.289       .  A
O2312      C2313   1.286       .  A
C2313      C2581   1.485       .  S
O2314     Zr2326   2.445       .  S
O2314      C2316   1.289       .  A
O2315      C2316   1.285       .  A
C2316      C2593   1.482       .  S
O2317     Zr2326   2.441   1_655  S
O2317      C2319   1.289       .  A
O2318     Zr2349   2.423       .  S
C2319      C2629   1.492       .  S
O2320     Zr2323   2.443       .  S
O2320      C2322   1.288       .  A
O2321     Zr2350   2.421   1_655  S
C2322      C2545   1.466       .  S
Zr2323     O2324   2.434       .  S
Zr2323     O2329   2.369       .  S
Zr2323     O2330   2.371       .  S
O2324      H2367   0.990       .  S
O2325      H2366   0.990       .  S
O2325      H2370   0.990       .  S
Zr2326     O2327   2.435   1_455  S
Zr2326     O2330   2.372   1_455  S
Zr2326     O2329   2.369   1_455  S
O2327      H2368   0.990       .  S
O2327      H2371   0.990       .  S
O2328      H2361   0.990       .  S
O2330      H2357   0.966       .  S
O2331     Zr2343   2.443       .  S
O2331      C2333   1.289       .  A
O2332     Zr2350   2.418       .  S
C2333      C2605   1.487       .  S
O2334     Zr2346   2.435       .  S
O2334      C2336   1.288       .  A
O2335     Zr2349   2.424       .  S
C2336      C2572   1.490       .  S
O2337     Zr2346   2.438   1_545  S
O2337      C2339   1.288       .  A
O2338      C2339   1.287       .  A
C2339      C2560   1.487       .  S
O2340     Zr2343   2.441       .  S
O2340      C2342   1.288       .  A
O2341      C2342   1.286       .  A
C2342      C2620   1.480       .  S
Zr2343     O2344   2.435       .  S
Zr2343     O2351   2.372       .  S
Zr2343     O2352   2.372       .  S
O2344      H2364   0.990       .  S
O2344      H2369   0.990       .  S
O2345      H2365   0.990       .  S
Zr2346     O2347   2.434       .  S
Zr2346     O2352   2.372       .  S
Zr2346     O2351   2.370       .  S
O2347      H2363   0.990       .  S
O2348      H2362   0.990       .  S
O2348      H2372   0.990       .  S
Zr2349     O2354   2.383       .  S
Zr2350     O2353   2.381   1_455  S
O2351      H2359   0.966       .  S
O2354      H2358   0.966       .  S
O2355      H2360   0.966       .  S
O2373     Zr2385   2.439   1_655  S
O2373      C2375   1.288       .  A
O2374     Zr2411   2.424       .  S
C2375      C2632   1.492       .  S
O2376     Zr2388   2.443       .  S
O2376      C2378   1.290       .  A
O2377     Zr2412   2.418   1_655  S
O2377      C2378   1.285       .  A
C2378      C2497   1.488       .  S
O2379     Zr2388   2.440       .  S
O2379      C2381   1.288       .  A
O2380      C2381   1.287       .  A
C2381      C2509   1.483       .  S
O2382     Zr2385   2.441       .  S
O2382      C2384   1.289       .  A
O2383     Zr2412   2.423       .  S
O2383      C2384   1.286       .  A
C2384      C2617   1.479       .  S
Zr2385     O2386   2.433   1_455  S
Zr2385     O2391   2.370   1_455  S
Zr2385     O2392   2.370   1_455  S
O2386      H2429   0.990       .  S
O2387      H2428   0.990       .  S
O2387      H2432   0.990       .  S
Zr2388     O2389   2.436       .  S
Zr2388     O2392   2.369       .  S
Zr2388     O2391   2.370       .  S
O2389      H2430   0.990       .  S
O2389      H2433   0.990       .  S
O2390      H2423   0.990       .  S
O2392     Zr2412   2.385   1_655  S
O2392      H2419   0.966       .  S
O2393     Zr2405   2.445       .  S
C2395      C2521   1.481       .  S
O2396     Zr2408   2.437       .  S
O2396      C2398   1.288       .  A
O2397      C2398   1.287       .  A
C2398      C2596   1.482       .  S
O2399     Zr2408   2.439       .  S
O2399      C2401   1.288       .  A
C2401      C2608   1.487       .  S
O2402     Zr2405   2.435       .  S
O2403     Zr2411   2.432       .  S
C2404      C2536   1.492       .  S
Zr2405     O2407   2.434       .  S
Zr2405     O2417   2.372       .  S
Zr2405     O2415   2.370       .  S
O2406      H2426   0.990       .  S
O2406      H2431   0.990       .  S
O2407      H2427   0.990       .  S
Zr2408     O2409   2.433       .  S
Zr2408     O2414   2.371       .  S
Zr2408     O2413   2.369       .  S
O2409      H2425   0.990       .  S
O2410      H2424   0.990       .  S
O2410      H2434   0.990       .  S
Zr2411     O2417   2.386       .  S
O2413      H2421   0.966       .  S
O2416      H2420   0.966       .  S
O2417      H2422   0.966       .  S
O2435     Zr2447   2.443       .  S
O2435      C2437   1.289       .  A
O2436      C2437   1.286       .  A
C2437      C2512   1.483       .  S
O2438     Zr2450   2.436       .  S
O2439     Zr2474   2.425       .  S
O2439      C2440   1.287       .  A
C2440      C2569   1.491       .  S
O2441     Zr2450   2.439   1_545  S
O2442     Zr2473   2.419   1_545  S
C2443      C2584   1.484       .  S
O2444     Zr2447   2.444       .  S
O2444      C2446   1.290       .  A
O2445     Zr2474   2.422       .  S
O2445      C2446   1.286       .  A
C2446      C2533   1.491       .  S
Zr2447     O2448   2.434       .  S
Zr2447     O2453   2.370       .  S
Zr2447     O2454   2.370       .  S
O2448      H2491   0.990       .  S
O2449      H2490   0.990       .  S
O2449      H2494   0.990       .  S
Zr2450     O2452   2.436       .  S
Zr2450     O2478   2.369       .  S
Zr2450     O2480   2.370       .  S
O2451      H2492   0.990       .  S
O2451      H2495   0.990       .  S
O2452      H2485   0.990       .  S
O2454     Zr2474   2.386       .  S
O2454      H2481   0.966       .  S
O2455     Zr2467   2.446       .  S
C2457      C2557   1.487       .  S
O2458     Zr2470   2.431       .  S
O2459     Zr2473   2.428       .  S
C2460      C2500   1.488       .  S
O2461     Zr2470   2.436       .  S
C2463      C2524   1.481       .  S
O2464     Zr2467   2.448       .  S
O2465      C2466   1.284       .  A
C2466      C2548   1.466       .  S
Zr2467     O2469   2.434       .  S
Zr2467     O2479   2.370       .  S
Zr2467     O2477   2.372       .  S
O2468      H2488   0.990       .  S
O2468      H2493   0.990       .  S
O2469      H2489   0.990       .  S
Zr2470     O2472   2.434       .  S
Zr2470     O2480   2.367       .  S
Zr2470     O2478   2.368       .  S
O2471      H2487   0.990       .  S
O2472      H2486   0.990       .  S
O2472      H2496   0.990       .  S
Zr2473     O2478   2.381       .  S
O2475      H2483   0.966       .  S
O2478      H2482   0.966       .  S
O2479      H2484   0.966       .  S
C2497      C2498   1.404       .  A
C2498      C2499   1.395       .  A
C2498      H2503   1.083       .  S
C2499      O2504   1.372       .  S
C2500      C2501   1.407       .  A
C2501      C2502   1.403       .  A
C2501      H2505   1.083       .  S
C2502      O2506   1.372       .  S
O2504      H2508   0.992       .  S
O2506      H2507   0.992   1_556  S
C2509      C2510   1.406       .  A
C2510      C2511   1.403       .  A
C2510      H2515   1.084       .  S
C2511      C2512   1.412       .  A
C2511      O2516   1.372       .  S
C2513      C2514   1.397       .  A
C2513      H2517   1.084       .  S
C2514      O2518   1.372       .  S
O2516      H2520   0.992       .  S
O2518      H2519   0.992       .  S
C2521      C2526   1.412   1_554  A
C2522      C2523   1.398       .  A
C2522      H2527   1.084       .  S
C2523      O2528   1.372       .  S
C2524      C2525   1.405   1_554  A
C2525      C2526   1.402       .  A
C2525      H2529   1.083       .  S
C2526      O2530   1.372       .  S
O2528      H2532   0.992       .  S
O2530      H2531   0.992       .  S
C2533      C2534   1.405       .  A
C2534      C2535   1.396       .  A
C2534      H2539   1.083       .  S
C2535      O2540   1.372       .  S
C2536      C2537   1.408       .  A
C2537      C2538   1.404       .  A
C2537      H2541   1.083       .  S
C2538      O2542   1.372       .  S
O2540      H2544   0.992       .  S
O2542      H2543   0.992   1_556  S
C2545      C2550   1.405       .  A
C2546      C2547   1.401       .  A
C2546      H2551   1.084       .  S
C2547      C2548   1.406       .  A
C2547      O2552   1.372       .  S
C2549      C2550   1.400       .  A
C2549      H2553   1.084       .  S
C2550      O2554   1.372       .  S
O2552      H2556   0.992       .  S
O2554      H2555   0.991       .  S
C2557      C2562   1.413   1_545  A
C2558      C2559   1.398       .  A
C2558      H2563   1.084       .  S
C2559      O2564   1.372       .  S
C2560      C2561   1.406   1_545  A
C2561      C2562   1.402       .  A
C2561      H2565   1.084       .  S
C2562      O2566   1.372       .  S
O2564      H2568   0.992       .  S
O2566      H2567   0.992       .  S
C2569      C2570   1.408       .  A
C2570      H2575   1.083       .  S
C2571      C2572   1.414       .  A
C2571      O2576   1.371       .  S
C2572      C2573   1.406       .  A
C2573      C2574   1.395       .  A
C2573      H2577   1.083       .  S
C2574      O2578   1.372       .  S
O2578      H2579   0.992   1_565  S
C2581      C2586   1.411       .  A
C2582      C2583   1.400       .  A
C2582      H2587   1.084       .  S
C2583      O2588   1.372       .  S
C2584      C2585   1.405       .  A
C2585      C2586   1.398       .  A
C2585      H2589   1.084       .  S
C2586      O2590   1.372       .  S
O2588      H2592   0.992       .  S
O2590      H2591   0.992       .  S
C2593      C2598   1.412   1_455  A
C2594      C2595   1.398       .  A
C2594      H2599   1.084       .  S
C2595      C2596   1.411       .  A
C2595      O2600   1.372       .  S
C2597      C2598   1.401       .  A
C2597      H2601   1.084       .  S
C2598      O2602   1.372       .  S
O2600      H2604   0.992       .  S
O2602      H2603   0.992       .  S
C2605      C2606   1.405       .  A
C2606      C2607   1.396       .  A
C2606      H2611   1.084       .  S
C2607      C2608   1.412       .  A
C2607      O2612   1.372       .  S
C2609      C2610   1.402       .  A
C2609      H2613   1.083       .  S
C2610      O2614   1.372       .  S
O2612      H2616   0.992       .  S
O2614      H2615   0.992   1_655  S
C2617      C2618   1.404   1_455  A
C2618      C2619   1.398       .  A
C2618      H2623   1.084       .  S
C2619      O2624   1.372       .  S
C2620      C2621   1.406       .  A
C2621      C2622   1.403       .  A
C2621      H2625   1.084       .  S
C2622      O2626   1.372       .  S
O2624      H2628   0.992       .  S
O2626      H2627   0.992       .  S
C2629      C2630   1.406       .  A
C2629      C2634   1.414       .  A
C2630      C2631   1.396       .  A
C2630      H2635   1.083       .  S
C2631      C2632   1.414       .  A
C2631      O2636   1.372       .  S
C2632      C2633   1.408       .  A
C2633      C2634   1.403       .  A
C2633      H2637   1.083       .  S
C2634      O2638   1.372       .  S
O2636      H2640   0.992   1_655  S
O2638      H2639   0.991   1_655  S
