geometry optimzed in LAMMPS
_audit_creation_date              2020-11-30 
_audit_creation_method            'lammps2cif' 
_symmetry_space_group_name_H-M    'P1' 
_symmetry_Int_Tables_number       1 
_symmetry_cell_setting            triclinic 
loop_ 
_symmetry_equiv_pos_as_xyz 
  x,y,z 
_cell_length_a                    36.87064240460978 
_cell_length_b                    36.86279219021355 
_cell_length_c                    36.86720342350303 
_cell_angle_alpha                 90.0138141097824 
_cell_angle_beta                  89.9548908558585 
_cell_angle_gamma                 89.95696813549763 
loop_ 
_atom_site_label 
_atom_site_type_symbol 
_atom_site_fract_x 
_atom_site_fract_y 
_atom_site_fract_z 
_atom_site_charge 
O1          O  0.16523354  0.28932189  0.12071722    -0.83960
C2          C  0.02287743  0.25221370  0.09161702     0.95400
O3          O  0.04056102  0.28075166  0.09782828    -0.73070
O4          O  0.09222108  0.31608273  0.13205423    -0.76670
Al5        Al  0.08979187  0.29130135  0.08660661     1.48980
C6          C  0.10050757  0.30679621  0.16398052     0.90650
O7          O  0.12439592  0.20672040  0.16152424    -0.82890
O8          O  0.13222939  0.17978257  0.08863310    -0.76450
Al9        Al  0.14054670  0.24793298  0.13701525     1.90120
O10         O  0.07479396  0.18760440  0.13549841    -0.75510
O11         O  0.09782082  0.21683453  0.03880474    -0.75360
O12         O  0.03882100  0.22295066  0.08381623    -0.81030
O13         O  0.08474908  0.27498571  0.03797149    -0.79230
O14         O  0.10579926  0.24842405  0.10377364    -1.15360
O15         O  0.13725061  0.30989123  0.07290579    -0.74560
C16         C  0.16374049  0.31108465  0.09455784     0.96160
C17         C  0.09746597  0.18593060  0.16111156     0.92560
Al18       Al  0.08740096  0.20592310  0.08779914     1.55560
O19         O  0.11318470  0.27573330  0.17056584    -0.79180
C20         C  0.09207842  0.24577724  0.02168180     0.96720
C21         C  0.16446478  0.18878567  0.09554383     0.91600
O22         O  0.17190077  0.21998384  0.10750435    -0.84500
O23         O  0.33334620  0.22085284  0.11301002    -0.83960
C24         C  0.48301479  0.25266934  0.09238574     0.95400
O25         O  0.46632591  0.22369463  0.08553932    -0.73070
O26         O  0.42963545  0.18830017  0.13625125    -0.76670
Al27       Al  0.41753749  0.20784890  0.08928049     1.48980
C28         C  0.40910305  0.18819447  0.16368710     0.90650
O29         O  0.39271100  0.27859529  0.17362525    -0.82890
O30         O  0.36943872  0.31169390  0.07766474    -0.76450
Al31       Al  0.36550996  0.24971871  0.14081768     1.90120
O32         O  0.41567080  0.31735525  0.13485576    -0.75510
O33         O  0.42017923  0.27839811  0.04043466    -0.75360
O34         O  0.46603714  0.28162819  0.09895874    -0.81030
O35         O  0.40803449  0.22016890  0.04008418    -0.79230
O36         O  0.39993243  0.25019430  0.10650939    -1.15360
O37         O  0.37243902  0.18255718  0.08973928    -0.74560
C38         C  0.34044275  0.19070104  0.09861636     0.96160
C39         C  0.40694930  0.30885620  0.16675390     0.92560
Al40       Al  0.41649962  0.29305231  0.08953801     1.55560
O41         O  0.38291636  0.20964209  0.16591116    -0.79180
C42         C  0.41367746  0.24955601  0.02348500     0.96720
C43         C  0.34189365  0.31127743  0.09793952     0.91600
O44         O  0.33971239  0.28969486  0.12399277    -0.84500
O45         O  0.22574867  0.39203176  0.16924294    -0.83960
C46         C  0.25756963  0.41118265  0.02080927     0.95400
O47         O  0.22813782  0.41789345  0.03682302    -0.73070
O48         O  0.19279369  0.36605160  0.07246757    -0.76670
Al49       Al  0.21147737  0.41383307  0.08522243     1.48980
C50         C  0.19186323  0.33976157  0.09443300     0.90650
O51         O  0.28288076  0.33196355  0.10877709    -0.82890
O52         O  0.31573404  0.42869813  0.13527975    -0.76450
Al53       Al  0.25432540  0.36393895  0.13707872     1.90120
O54         O  0.32282261  0.37115197  0.08832394    -0.75510
O55         O  0.28042618  0.46452632  0.08349313    -0.75360
O56         O  0.28645534  0.40593296  0.03820466    -0.81030
O57         O  0.22213386  0.46304443  0.09550235    -0.79230
O58         O  0.25430724  0.39802476  0.10318283    -1.15360
O59         O  0.18587904  0.41284247  0.13016651    -0.74560
C60         C  0.19483536  0.40497290  0.16216716     0.96160
C61         C  0.31385241  0.33910802  0.09603305     0.92560
Al62       Al  0.29712619  0.41608885  0.08743966     1.55560
O63         O  0.21349065  0.33883875  0.12064858    -0.79180
C64         C  0.25096882  0.48049951  0.09024250     0.96720
C65         C  0.31668670  0.40660789  0.16146866     0.91600
O66         O  0.29516350  0.38029448  0.16222868    -0.84500
O67         O  0.29503279  0.11920383  0.16340926    -0.83960
C68         C  0.25379955  0.08936705  0.02237016     0.95400
O69         O  0.28310479  0.09574723  0.03881453    -0.73070
O70         O  0.32106716  0.13055636  0.08909258    -0.76670
Al71       Al  0.29570519  0.08525693  0.08772744     1.48980
C72         C  0.31245361  0.16248770  0.09801744     0.90650
O73         O  0.21332196  0.16233803  0.12412783    -0.82890
O74         O  0.18623475  0.08754325  0.13444165    -0.76450
Al75       Al  0.25404477  0.13665060  0.13991643     1.90120
O76         O  0.19228496  0.13356050  0.07675377    -0.75510
O77         O  0.22191330  0.03712185  0.09847801    -0.75360
O78         O  0.22514096  0.08232722  0.03952407    -0.81030
O79         O  0.27948267  0.03674447  0.08322061    -0.79230
O80         O  0.25341562  0.10265842  0.10545218    -1.15120
O81         O  0.31575766  0.07185928  0.13443728    -0.74560
C82         C  0.31681235  0.09312877  0.16122663     0.96160
C83         C  0.19221709  0.16067321  0.09759982     0.92560
Al84       Al  0.21051029  0.08639051  0.08878505     1.55560
O85         O  0.28188899  0.16923838  0.11166217    -0.79180
C86         C  0.25064710  0.02018104  0.09096604     0.96720
C87         C  0.19517518  0.09549876  0.16647749     0.91600
O88         O  0.22593217  0.10880323  0.17318744    -0.84500
O89         O  0.29573225  0.15948110  0.38142441    -0.83960
C90         C  0.25505556  0.01883465  0.41269580     0.95400
O91         O  0.28427097  0.03548519  0.40643578    -0.73070
O92         O  0.32112438  0.08581053  0.37062125    -0.76670
Al93       Al  0.29670254  0.08450192  0.41653262     1.48980
C94         C  0.31216477  0.09447217  0.33868044     0.90650
O95         O  0.21247990  0.12000983  0.34186675    -0.82890
O96         O  0.18707545  0.13080599  0.41554577    -0.76450
Al97       Al  0.25410750  0.13584368  0.36554632     1.90120
O98         O  0.19186468  0.07217697  0.37001375    -0.75510
O99         O  0.22387615  0.09497088  0.46592231    -0.75360
O100        O  0.22645384  0.03572049  0.42069276    -0.81030
O101        O  0.28168162  0.08068022  0.46568205    -0.79230
O102        O  0.25408478  0.10165776  0.39973599    -1.15360
O103        O  0.31628459  0.13132833  0.42927608    -0.74560
C104        C  0.31740494  0.15769523  0.40757801     0.96160
C105        C  0.19077334  0.09388150  0.34364219     0.92560
Al106      Al  0.21145252  0.08488607  0.41687041     1.55560
O107        O  0.28118632  0.10733392  0.33215910    -0.79180
C108        C  0.25309352  0.08869958  0.48257407     0.96720
C109        C  0.19604431  0.16274030  0.40686607     0.91600
O110        O  0.22703114  0.16925927  0.39402326    -0.84500
O111        O  0.33408273  0.11017428  0.28028076    -0.83960
C112        C  0.48408796  0.08755497  0.25234982     0.95400
O113        O  0.46691481  0.08196776  0.28124469    -0.73070
O114        O  0.42973442  0.13300932  0.31422665    -0.76670
Al115      Al  0.41791539  0.08577395  0.29550331     1.48980
C116        C  0.40984824  0.16083463  0.31326355     0.90650
O117        O  0.39674136  0.16755760  0.22226176    -0.82890
O118        O  0.37199040  0.07142921  0.18959691    -0.76450
Al119      Al  0.36790174  0.13654178  0.25116596     1.90120
O120        O  0.41950986  0.12837385  0.18373321    -0.75510
O121        O  0.42218400  0.03530295  0.22638167    -0.75360
O122        O  0.46792352  0.09270584  0.22267655    -0.81030
O123        O  0.40871991  0.03631692  0.28433375    -0.79230
O124        O  0.40160080  0.10183937  0.25222547    -1.15360
O125        O  0.37223580  0.08667248  0.31930133    -0.74560
C126        C  0.34045679  0.09561497  0.31058288     0.96160
C127        C  0.41079728  0.16035634  0.19191683     0.92560
Al128      Al  0.41903085  0.08356859  0.20990078     1.55560
O129        O  0.38427507  0.16301837  0.29111684    -0.79180
C130        C  0.41539294  0.01908764  0.25557880     0.96720
C131        C  0.34532553  0.09291525  0.18911224     0.91600
O132        O  0.34370828  0.11884282  0.21100194    -0.84500
O133        O  0.17317233  0.10889476  0.22527875    -0.83960
C134        C  0.02364482  0.08679617  0.25329295     0.95400
O135        O  0.04057061  0.08006521  0.22446692    -0.73070
O136        O  0.07655210  0.13087801  0.18986812    -0.76670
Al137      Al  0.08943840  0.08394649  0.20979622     1.48980
C138        C  0.09737160  0.15796899  0.18965006     0.90650
O139        O  0.10964914  0.16743812  0.28132442    -0.82890
O140        O  0.13626812  0.07157744  0.31517305    -0.76450
Al141      Al  0.13904459  0.13582199  0.25326444     1.90120
O142        O  0.08845015  0.12828722  0.32078236    -0.75510
O143        O  0.08669002  0.03422980  0.28001992    -0.75360
O144        O  0.04001176  0.09185178  0.28286873    -0.81030
O145        O  0.09944188  0.03470024  0.22191003    -0.79230
O146        O  0.10581710  0.10081934  0.25279877    -1.15360
O147        O  0.13533055  0.08539430  0.18585648    -0.74560
C148        C  0.16699244  0.09493131  0.19467870     0.96160
C149        C  0.09652704  0.16032653  0.31214687     0.92560
Al150      Al  0.08904456  0.08302731  0.29543281     1.55560
O151        O  0.12267926  0.16021891  0.21220319    -0.79180
C152        C  0.09401648  0.01771914  0.25112419     0.96720
C153        C  0.16233780  0.09367910  0.31585655     0.91600
O154        O  0.16336676  0.11981579  0.29419444    -0.84500
O155        O  0.17418602  0.22124316  0.39140999    -0.83960
C156        C  0.02411094  0.24902888  0.41369303     0.95400
O157        O  0.04130875  0.22019384  0.41951356    -0.73070
O158        O  0.07825823  0.18736956  0.36818166    -0.76670
Al159      Al  0.09028484  0.20589077  0.41543688     1.48980
C160        C  0.09834226  0.18812048  0.34048898     0.90650
O161        O  0.11152636  0.27887216  0.33362461    -0.82890
O162        O  0.13618641  0.31171680  0.42987286    -0.76450
Al163      Al  0.14039229  0.25015648  0.36478904     1.90120
O164        O  0.08887345  0.31754629  0.37275145    -0.75510
O165        O  0.08583230  0.27491283  0.46582857    -0.75360
O166        O  0.04026780  0.27866154  0.40824533    -0.81030
O167        O  0.09974524  0.21703957  0.46482605    -0.79230
O168        O  0.10661880  0.24913739  0.39938741    -1.15360
O169        O  0.13591215  0.18199305  0.41432340    -0.74560
C170        C  0.16775003  0.19082178  0.40569468     0.96160
C171        C  0.09756719  0.30927798  0.34078368     0.92560
Al172      Al  0.08914989  0.29143834  0.41757488     1.55560
O173        O  0.12414874  0.21002890  0.33844933    -0.79180
C174        C  0.09288302  0.24576532  0.48204394     0.96720
C175        C  0.16283501  0.31230520  0.40836159     0.91600
O176        O  0.16445252  0.29047718  0.38237743    -0.84500
O177        O  0.17502895  0.38784715  0.28074545    -0.83960
C178        C  0.02541222  0.40889849  0.24865840     0.95400
O179        O  0.04209500  0.41535112  0.27770447    -0.73070
O180        O  0.07911459  0.36514751  0.31317166    -0.76670
Al181      Al  0.09090380  0.41205456  0.29340830     1.48980
C182        C  0.09931515  0.33748934  0.31295060     0.90650
O183        O  0.11596319  0.32778044  0.22227499    -0.82890
O184        O  0.13913154  0.42334297  0.18930174    -0.76450
Al185      Al  0.14294741  0.36039219  0.25150484     1.90120
O186        O  0.09246862  0.36655358  0.18386035    -0.75510
O187        O  0.08877175  0.46100093  0.22267349    -0.75360
O188        O  0.04239419  0.40286459  0.21958301    -0.81030
O189        O  0.09996042  0.46133194  0.28106443    -0.79230
O190        O  0.10855982  0.39481359  0.25102488    -1.15360
O191        O  0.13602455  0.41198278  0.31858828    -0.74560
C192        C  0.16795115  0.40270869  0.31066482     0.96160
C193        C  0.10142688  0.33468596  0.19218062     0.92560
Al194      Al  0.09203896  0.41186439  0.20812292     1.55560
O195        O  0.12525166  0.33504997  0.29124842    -0.79180
C196        C  0.09474985  0.47794390  0.25161671     0.96720
C197        C  0.16678419  0.40322286  0.19000718     0.91600
O198        O  0.16904157  0.37740874  0.21184827    -0.84500
O199        O  0.34310467  0.38039628  0.21205559    -0.83960
C200        C  0.48553152  0.40951593  0.24917677     0.95400
O201        O  0.46783935  0.40327730  0.22066118    -0.73070
O202        O  0.41618164  0.36894840  0.18543114    -0.76670
Al203      Al  0.41859967  0.41444925  0.21011568     1.48980
C204        C  0.40779866  0.33703190  0.19468643     0.90650
O205        O  0.38380335  0.33967725  0.29474332    -0.82890
O206        O  0.37609499  0.41256070  0.32159901    -0.76450
Al207      Al  0.36772619  0.36413526  0.25348750     1.90120
O208        O  0.43347591  0.36562390  0.31380782    -0.75510
O209        O  0.41059851  0.46232047  0.28454122    -0.75360
O210        O  0.46957657  0.41723374  0.27846042    -0.81030
O211        O  0.42359923  0.46312634  0.22638150    -0.79230
O212        O  0.40255033  0.39732483  0.25298456    -1.15360
O213        O  0.37119116  0.42813718  0.19146767    -0.74560
C214        C  0.34469176  0.40650712  0.19024340     0.96160
C215        C  0.41073235  0.34007836  0.31553151     0.92560
Al216      Al  0.42095516  0.41331613  0.29547368     1.55560
O217        O  0.39502436  0.33046276  0.22571806    -0.79180
C218        C  0.41627649  0.47943449  0.25558144     0.96720
C219        C  0.34384571  0.40572208  0.31257701     0.91600
O220        O  0.33641003  0.39376100  0.28138046    -0.84500
O221        O  0.29502929  0.37713534  0.33912510    -0.83960
C222        C  0.25779175  0.41045995  0.48114785     0.95400
O223        O  0.28649723  0.40301795  0.46415218    -0.73070
O224        O  0.32205429  0.36699954  0.41373047    -0.76670
Al225      Al  0.29777361  0.41268131  0.41488884     1.48980
C226        C  0.31303419  0.33492929  0.40595945     0.90650
O227        O  0.21313792  0.33805836  0.38213208    -0.82890
O228        O  0.18720132  0.41230037  0.37084919    -0.76450
Al229      Al  0.25421660  0.36148342  0.36478867     1.90120
O230        O  0.19250263  0.36691249  0.42956656    -0.75510
O231        O  0.22509179  0.46257280  0.40572784    -0.75360
O232        O  0.22887584  0.41811694  0.46466179    -0.81030
O233        O  0.28309738  0.46192663  0.41896381    -0.79230
O234        O  0.25484968  0.39596725  0.39873647    -1.15360
O235        O  0.31589018  0.42471474  0.36767525    -0.74560
C236        C  0.31606177  0.40373247  0.34067170     0.96160
C237        C  0.19136865  0.34019209  0.40821422     0.92560
Al238      Al  0.21255992  0.41364845  0.41617702     1.55560
O239        O  0.28222969  0.32821042  0.39275262    -0.79180
C240        C  0.25439222  0.47904554  0.41202966     0.96720
C241        C  0.19588887  0.40341453  0.33891834     0.91600
O242        O  0.22648685  0.38982009  0.33220004    -0.84500
O243        O  0.33497108  0.27607355  0.39266017    -0.83960
C244        C  0.48455073  0.24805524  0.41454125     0.95400
O245        O  0.46761824  0.27685991  0.42134515    -0.73070
O246        O  0.43155899  0.31143976  0.37063837    -0.76670
Al247      Al  0.41873632  0.29149828  0.41755232     1.48980
C248        C  0.41075944  0.31161593  0.34354035     0.90650
O249        O  0.39837274  0.21997268  0.33401797    -0.82890
O250        O  0.37196601  0.18606637  0.42984990    -0.76450
Al251      Al  0.36906100  0.24806302  0.36570246     1.90120
O252        O  0.41972943  0.18054342  0.37310155    -0.75510
O253        O  0.42157330  0.22120607  0.46717065    -0.75360
O254        O  0.46819033  0.21846708  0.40949917    -0.81030
O255        O  0.40882427  0.27932807  0.46679557    -0.79230
O256        O  0.40234267  0.24850136  0.40065737    -1.15360
O257        O  0.37283953  0.31545637  0.41617348    -0.74560
C258        C  0.34117501  0.30667682  0.40660588     0.96160
C259        C  0.41158023  0.18917265  0.34108533     0.92560
Al260      Al  0.41916661  0.20585175  0.41837268     1.55560
O261        O  0.38543273  0.28908652  0.34130525    -0.79180
C262        C  0.41430000  0.25008980  0.48372432     0.96720
C263        C  0.34584114  0.18546201  0.40781339     0.91600
O264        O  0.34475693  0.20718131  0.38173758    -0.84500
O265        O  0.16523364  0.28932188  0.62071730    -0.83960
C266        C  0.02287754  0.25221370  0.59161705     0.95400
O267        O  0.04056113  0.28075166  0.59782833    -0.73070
O268        O  0.09222121  0.31608272  0.63205429    -0.76670
Al269      Al  0.08979198  0.29130134  0.58660666     1.48980
C270        C  0.10050768  0.30679621  0.66398059     0.90650
O271        O  0.12439601  0.20672038  0.66152429    -0.82890
O272        O  0.13222949  0.17978258  0.58863313    -0.76450
Al273      Al  0.14054679  0.24793297  0.63701532     1.90120
O274        O  0.07479405  0.18760438  0.63549844    -0.75510
O275        O  0.09782094  0.21683454  0.53880477    -0.75360
O276        O  0.03882112  0.22295067  0.58381626    -0.81030
O277        O  0.08474917  0.27498571  0.53797153    -0.79230
O278        O  0.10579936  0.24842405  0.60377370    -1.15360
O279        O  0.13725071  0.30989119  0.57290584    -0.74560
C280        C  0.16374059  0.31108463  0.59455790     0.96160
C281        C  0.09746606  0.18593057  0.66111160     0.92560
Al282      Al  0.08740106  0.20592310  0.58779917     1.55560
O283        O  0.11318479  0.27573329  0.67056592    -0.79180
C284        C  0.09207852  0.24577725  0.52168183     0.96720
C285        C  0.16446487  0.18878568  0.59554386     0.91600
O286        O  0.17190086  0.21998384  0.60750442    -0.84500
O287        O  0.33334633  0.22085280  0.61300997    -0.83960
C288        C  0.48301490  0.25266932  0.59238566     0.95400
O289        O  0.46632603  0.22369459  0.58553931    -0.73070
O290        O  0.42963551  0.18830008  0.63625118    -0.76670
Al291      Al  0.41753761  0.20784887  0.58928041     1.48980
C292        C  0.40910312  0.18819443  0.66368705     0.90650
O293        O  0.39271111  0.27859530  0.67362516    -0.82890
O294        O  0.36943881  0.31169395  0.57766472    -0.76450
Al295      Al  0.36551008  0.24971870  0.64081761     1.90120
O296        O  0.41567097  0.31735525  0.63485569    -0.75510
O297        O  0.42017924  0.27839814  0.54043456    -0.75360
O298        O  0.46603724  0.28162820  0.59895856    -0.81030
O299        O  0.40803469  0.22016889  0.54008408    -0.79230
O300        O  0.39993255  0.25019429  0.60650931    -1.15360
O301        O  0.37243913  0.18255718  0.58973913    -0.74560
C302        C  0.34044287  0.19070102  0.59861627     0.96160
C303        C  0.40694944  0.30885620  0.66675384     0.92560
Al304      Al  0.41649972  0.29305232  0.58953792     1.55560
O305        O  0.38291648  0.20964211  0.66591110    -0.79180
C306        C  0.41367755  0.24955602  0.52348489     0.96720
C307        C  0.34189373  0.31127744  0.59793949     0.91600
O308        O  0.33971248  0.28969482  0.62399270    -0.84500
O309        O  0.22574864  0.39203177  0.66924294    -0.83960
C310        C  0.25756970  0.41118263  0.52080926     0.95400
O311        O  0.22813786  0.41789335  0.53682301    -0.73070
O312        O  0.19279372  0.36605159  0.57246763    -0.76670
Al313      Al  0.21147741  0.41383306  0.58522242     1.48980
C314        C  0.19186331  0.33976155  0.59443304     0.90650
O315        O  0.28288087  0.33196356  0.60877720    -0.82890
O316        O  0.31573415  0.42869808  0.63527976    -0.76450
Al317      Al  0.25432544  0.36393897  0.63707877     1.90120
O318        O  0.32282265  0.37115197  0.58832391    -0.75510
O319        O  0.28042627  0.46452633  0.58349321    -0.75360
O320        O  0.28645541  0.40593303  0.53820466    -0.81030
O321        O  0.22213391  0.46304444  0.59550224    -0.79230
O322        O  0.25430729  0.39802477  0.60318285    -1.15360
O323        O  0.18587907  0.41284254  0.63016650    -0.74560
C324        C  0.19483536  0.40497296  0.66216716     0.96160
C325        C  0.31385248  0.33910803  0.59603308     0.92560
Al326      Al  0.29712626  0.41608885  0.58743968     1.55560
O327        O  0.21349075  0.33883873  0.62064860    -0.79180
C328        C  0.25096889  0.48049952  0.59024248     0.96720
C329        C  0.31668675  0.40660788  0.66146871     0.91600
O330        O  0.29516349  0.38029453  0.66222876    -0.84500
O331        O  0.29503280  0.11920379  0.66340928    -0.83960
C332        C  0.25379960  0.08936703  0.52237010     0.95400
O333        O  0.28310486  0.09574712  0.53881446    -0.73070
O334        O  0.32106724  0.13055634  0.58909247    -0.76670
Al335      Al  0.29570527  0.08525691  0.58772741     1.48980
C336        C  0.31245372  0.16248767  0.59801738     0.90650
O337        O  0.21332210  0.16233806  0.62412777    -0.82890
O338        O  0.18623480  0.08754317  0.63444160    -0.76450
Al339      Al  0.25404484  0.13665059  0.63991640     1.90120
O340        O  0.19228498  0.13356050  0.57675379    -0.75510
O341        O  0.22191335  0.03712183  0.59847787    -0.75360
O342        O  0.22514100  0.08232729  0.53952400    -0.81030
O343        O  0.27948277  0.03674444  0.58322065    -0.79230
O344        O  0.25341569  0.10265841  0.60545214    -1.15120
O345        O  0.31575777  0.07185932  0.63443725    -0.74560
C346        C  0.31681238  0.09312876  0.66122664     0.96160
C347        C  0.19221718  0.16067322  0.59759980     0.92560
Al348      Al  0.21051035  0.08639051  0.58878500     1.55560
O349        O  0.28188913  0.16923835  0.61166218    -0.79180
C350        C  0.25064717  0.02018102  0.59096599     0.96720
C351        C  0.19517521  0.09549872  0.66647745     0.91600
O352        O  0.22593217  0.10880326  0.67318739    -0.84500
O353        O  0.29573222  0.15948110  0.88142451    -0.83960
C354        C  0.25505553  0.01883466  0.91269586     0.95400
O355        O  0.28427094  0.03548521  0.90643585    -0.73070
O356        O  0.32112437  0.08581055  0.87062134    -0.76670
Al357      Al  0.29670251  0.08450193  0.91653270     1.48980
C358        C  0.31216475  0.09447218  0.83868052     0.90650
O359        O  0.21247990  0.12000982  0.84186683    -0.82890
O360        O  0.18707540  0.13080600  0.91554582    -0.76450
Al361      Al  0.25410748  0.13584368  0.86554640     1.90120
O362        O  0.19186466  0.07217696  0.87001383    -0.75510
O363        O  0.22387611  0.09497090  0.96592238    -0.75360
O364        O  0.22645381  0.03572050  0.92069285    -0.81030
O365        O  0.28168157  0.08068021  0.96568212    -0.79230
O366        O  0.25408474  0.10165777  0.89973607    -1.15360
O367        O  0.31628454  0.13132833  0.92927618    -0.74560
C368        C  0.31740489  0.15769523  0.90757812     0.96160
C369        C  0.19077335  0.09388148  0.84364226     0.92560
Al370      Al  0.21145249  0.08488608  0.91687048     1.55560
O371        O  0.28118630  0.10733392  0.83215919    -0.79180
C372        C  0.25309347  0.08869959  0.98257415     0.96720
C373        C  0.19604427  0.16274032  0.90686611     0.91600
O374        O  0.22703111  0.16925927  0.89402332    -0.84500
O375        O  0.33408272  0.11017439  0.78028087    -0.83960
C376        C  0.48408796  0.08755496  0.75234990     0.95400
O377        O  0.46691480  0.08196782  0.78124479    -0.73070
O378        O  0.42973431  0.13300927  0.81422681    -0.76670
Al379      Al  0.41791536  0.08577393  0.79550338     1.48980
C380        C  0.40984820  0.16083463  0.81326362     0.90650
O381        O  0.39674133  0.16755759  0.72226171    -0.82890
O382        O  0.37199043  0.07142925  0.68959692    -0.76450
Al383      Al  0.36790174  0.13654181  0.75116599     1.90120
O384        O  0.41950994  0.12837383  0.68373324    -0.75510
O385        O  0.42218396  0.03530294  0.72638169    -0.75360
O386        O  0.46792352  0.09270577  0.72267662    -0.81030
O387        O  0.40871997  0.03631688  0.78433379    -0.79230
O388        O  0.40160079  0.10183937  0.75222552    -1.15360
O389        O  0.37223576  0.08667237  0.81930135    -0.74560
C390        C  0.34045677  0.09561497  0.81058295     0.96160
C391        C  0.41079731  0.16035631  0.69191681     0.92560
Al392      Al  0.41903086  0.08356858  0.70990083     1.55560
O393        O  0.38427513  0.16301844  0.79111682    -0.79180
C394        C  0.41539296  0.01908761  0.75557882     0.96720
C395        C  0.34532553  0.09291525  0.68911228     0.91600
O396        O  0.34370824  0.11884278  0.71100201    -0.84500
O397        O  0.17317239  0.10889463  0.72527874    -0.83960
C398        C  0.02364485  0.08679620  0.75329303     0.95400
O399        O  0.04057062  0.08006523  0.72446699    -0.73070
O400        O  0.07655215  0.13087801  0.68986817    -0.76670
Al401      Al  0.08943842  0.08394647  0.70979627     1.48980
C402        C  0.09737168  0.15796896  0.68965009     0.90650
O403        O  0.10964930  0.16743810  0.78132444    -0.82890
O404        O  0.13626812  0.07157744  0.81517313    -0.76450
Al405      Al  0.13904469  0.13582192  0.75326444     1.90120
O406        O  0.08845019  0.12828726  0.82078236    -0.75510
O407        O  0.08669004  0.03422981  0.78001999    -0.75360
O408        O  0.04001180  0.09185181  0.78286879    -0.81030
O409        O  0.09944188  0.03470023  0.72191010    -0.79230
O410        O  0.10581715  0.10081932  0.75279881    -1.15360
O411        O  0.13533056  0.08539425  0.68585647    -0.74560
C412        C  0.16699247  0.09493123  0.69467868     0.96160
C413        C  0.09652713  0.16032656  0.81214686     0.92560
Al414      Al  0.08904459  0.08302733  0.79543286     1.55560
O415        O  0.12267937  0.16021885  0.71220320    -0.79180
C416        C  0.09401649  0.01771914  0.75112426     0.96720
C417        C  0.16233784  0.09367906  0.81585659     0.91600
O418        O  0.16336685  0.11981570  0.79419443    -0.84500
O419        O  0.17418599  0.22124318  0.89141001    -0.83960
C420        C  0.02411090  0.24902891  0.91369305     0.95400
O421        O  0.04130871  0.22019386  0.91951352    -0.73070
O422        O  0.07825823  0.18736961  0.86818161    -0.76670
Al423      Al  0.09028480  0.20589080  0.91543684     1.48980
C424        C  0.09834228  0.18812053  0.84048895     0.90650
O425        O  0.11152638  0.27887224  0.83362464    -0.82890
O426        O  0.13618635  0.31171687  0.92987287    -0.76450
Al427      Al  0.14039228  0.25015653  0.86478906     1.90120
O428        O  0.08887338  0.31754634  0.87275146    -0.75510
O429        O  0.08583227  0.27491285  0.96582856    -0.75360
O430        O  0.04026775  0.27866158  0.90824536    -0.81030
O431        O  0.09974516  0.21703958  0.96482602    -0.79230
O432        O  0.10661876  0.24913744  0.89938740    -1.15360
O433        O  0.13591211  0.18199307  0.91432339    -0.74560
C434        C  0.16774999  0.19082180  0.90569470     0.96160
C435        C  0.09756717  0.30927805  0.84078370     0.92560
Al436      Al  0.08914984  0.29143838  0.91757488     1.55560
O437        O  0.12414875  0.21002897  0.83844932    -0.79180
C438        C  0.09288295  0.24576533  0.98204392     0.96720
C439        C  0.16283498  0.31230523  0.90836164     0.91600
O440        O  0.16445250  0.29047720  0.88237750    -0.84500
O441        O  0.17502901  0.38784734  0.78074533    -0.83960
C442        C  0.02541226  0.40889850  0.74865839     0.95400
O443        O  0.04209505  0.41535132  0.77770442    -0.73070
O444        O  0.07911446  0.36514748  0.81317153    -0.76670
Al445      Al  0.09090383  0.41205456  0.79340831     1.48980
C446        C  0.09931515  0.33748940  0.81295062     0.90650
O447        O  0.11596308  0.32778044  0.72227515    -0.82890
O448        O  0.13913160  0.42334317  0.68930189    -0.76450
Al449      Al  0.14294742  0.36039224  0.75150486     1.90120
O450        O  0.09246884  0.36655361  0.68386035    -0.75510
O451        O  0.08877158  0.46100093  0.72267362    -0.75360
O452        O  0.04239425  0.40286441  0.71958303    -0.81030
O453        O  0.09996065  0.46133194  0.78106449    -0.79230
O454        O  0.10855984  0.39481362  0.75102490    -1.15360
O455        O  0.13602456  0.41198259  0.81858834    -0.74560
C456        C  0.16795118  0.40270867  0.81066479     0.96160
C457        C  0.10142695  0.33468597  0.69218069     0.92560
Al458      Al  0.09203899  0.41186441  0.70812297     1.55560
O459        O  0.12525179  0.33505013  0.79124857    -0.79180
C460        C  0.09474987  0.47794390  0.75161681     0.96720
C461        C  0.16678417  0.40322292  0.69000718     0.91600
O462        O  0.16904147  0.37740868  0.71184815    -0.84500
O463        O  0.34310473  0.38039623  0.71205562    -0.83960
C464        C  0.48553156  0.40951591  0.74917686     0.95400
O465        O  0.46783941  0.40327735  0.72066124    -0.73070
O466        O  0.41618177  0.36894840  0.68543115    -0.76670
Al467      Al  0.41859973  0.41444923  0.71011572     1.48980
C468        C  0.40779879  0.33703188  0.69468639     0.90650
O469        O  0.38380345  0.33967713  0.79474330    -0.82890
O470        O  0.37609499  0.41256072  0.82159903    -0.76450
Al471      Al  0.36772627  0.36413517  0.75348750     1.90120
O472        O  0.43347588  0.36562389  0.81380795    -0.75510
O473        O  0.41059859  0.46232045  0.78454127    -0.75360
O474        O  0.46957660  0.41723365  0.77846052    -0.81030
O475        O  0.42359922  0.46312633  0.72638153    -0.79230
O476        O  0.40255038  0.39732479  0.75298460    -1.15360
O477        O  0.37119123  0.42813712  0.69146769    -0.74560
C478        C  0.34469182  0.40650708  0.69024343     0.96160
C479        C  0.41073237  0.34007830  0.81553157     0.92560
Al480      Al  0.42095518  0.41331610  0.79547375     1.55560
O481        O  0.39502446  0.33046272  0.72571801    -0.79180
C482        C  0.41627652  0.47943448  0.75558147     0.96720
C483        C  0.34384573  0.40572200  0.81257705     0.91600
O484        O  0.33641007  0.39376083  0.78138053    -0.84500
O485        O  0.29502932  0.37713526  0.83912518    -0.83960
C486        C  0.25779170  0.41045998  0.98114786     0.95400
O487        O  0.28649718  0.40301795  0.96415221    -0.73070
O488        O  0.32205428  0.36699955  0.91373053    -0.76670
Al489      Al  0.29777359  0.41268131  0.91488887     1.48980
C490        C  0.31303417  0.33492929  0.90595956     0.90650
O491        O  0.21313790  0.33805835  0.88213214    -0.82890
O492        O  0.18720134  0.41230033  0.87084917    -0.76450
Al493      Al  0.25421661  0.36148337  0.86478873     1.90120
O494        O  0.19250261  0.36691252  0.92956659    -0.75510
O495        O  0.22509178  0.46257280  0.90572778    -0.75360
O496        O  0.22887580  0.41811700  0.96466179    -0.81030
O497        O  0.28309735  0.46192663  0.91896384    -0.79230
O498        O  0.25484967  0.39596725  0.89873650    -1.15360
O499        O  0.31589016  0.42471472  0.86767526    -0.74560
C500        C  0.31606178  0.40373240  0.84067175     0.96160
C501        C  0.19136863  0.34019211  0.90821427     0.92560
Al502      Al  0.21255991  0.41364846  0.91617701     1.55560
O503        O  0.28222966  0.32821040  0.89275276    -0.79180
C504        C  0.25439220  0.47904554  0.91202966     0.96720
C505        C  0.19588890  0.40341447  0.83891832     0.91600
O506        O  0.22648688  0.38982001  0.83220004    -0.84500
O507        O  0.33497104  0.27607354  0.89266031    -0.83960
C508        C  0.48455070  0.24805520  0.91454132     0.95400
O509        O  0.46761822  0.27685989  0.92134524    -0.73070
O510        O  0.43155895  0.31143974  0.87063848    -0.76670
Al511      Al  0.41873629  0.29149827  0.91755243     1.48980
C512        C  0.41075941  0.31161590  0.84354045     0.90650
O513        O  0.39837266  0.21997268  0.83401808    -0.82890
O514        O  0.37196595  0.18606636  0.92985002    -0.76450
Al515      Al  0.36906094  0.24806302  0.86570258     1.90120
O516        O  0.41972936  0.18054341  0.87310165    -0.75510
O517        O  0.42157324  0.22120605  0.96717077    -0.75360
O518        O  0.46819028  0.21846705  0.90949927    -0.81030
O519        O  0.40882424  0.27932806  0.96679568    -0.79230
O520        O  0.40234262  0.24850135  0.90065748    -1.15360
O521        O  0.37283950  0.31545637  0.91617360    -0.74560
C522        C  0.34117498  0.30667682  0.90660601     0.96160
C523        C  0.41158017  0.18917265  0.84108543     0.92560
Al524      Al  0.41916655  0.20585174  0.91837279     1.55560
O525        O  0.38543268  0.28908652  0.84130537    -0.79180
C526        C  0.41429994  0.25008978  0.98372443     0.96720
C527        C  0.34584108  0.18546202  0.90781351     0.91600
O528        O  0.34475687  0.20718132  0.88173771    -0.84500
O529        O  0.16523358  0.78932184  0.12071721    -0.83960
C530        C  0.02287745  0.75221364  0.09161703     0.95400
O531        O  0.04056104  0.78075160  0.09782829    -0.73070
O532        O  0.09222108  0.81608269  0.13205426    -0.76670
Al533      Al  0.08979188  0.79130131  0.08660663     1.48980
C534        C  0.10050760  0.80679619  0.16398054     0.90650
O535        O  0.12439596  0.70672038  0.16152424    -0.82890
O536        O  0.13222942  0.67978253  0.08863310    -0.76450
Al537      Al  0.14054674  0.74793295  0.13701525     1.90120
O538        O  0.07479400  0.68760436  0.13549841    -0.75510
O539        O  0.09782084  0.71683450  0.03880474    -0.75360
O540        O  0.03882102  0.72295061  0.08381624    -0.81030
O541        O  0.08474911  0.77498568  0.03797150    -0.79230
O542        O  0.10579929  0.74842402  0.10377365    -1.15360
O543        O  0.13725060  0.80989123  0.07290582    -0.74560
C544        C  0.16374050  0.81108464  0.09455786     0.96160
C545        C  0.09746601  0.68593057  0.16111156     0.92560
Al546      Al  0.08740099  0.70592306  0.08779914     1.55560
O547        O  0.11318477  0.77573328  0.17056585    -0.79180
C548        C  0.09207844  0.74577721  0.02168181     0.96720
C549        C  0.16446481  0.68878562  0.09554383     0.91600
O550        O  0.17190080  0.71998379  0.10750436    -0.84500
O551        O  0.33334620  0.72085276  0.11301013    -0.83960
C552        C  0.48301478  0.75266927  0.09238571     0.95400
O553        O  0.46632590  0.72369455  0.08553937    -0.73070
O554        O  0.42963540  0.68830009  0.13625125    -0.76670
Al555      Al  0.41753747  0.70784885  0.08928050     1.48980
C556        C  0.40910304  0.68819444  0.16368714     0.90650
O557        O  0.39271101  0.77859531  0.17362525    -0.82890
O558        O  0.36943870  0.81169391  0.07766481    -0.76450
Al559      Al  0.36550997  0.74971869  0.14081773     1.90120
O560        O  0.41567087  0.81735523  0.13485575    -0.75510
O561        O  0.42017912  0.77839807  0.04043464    -0.75360
O562        O  0.46603713  0.78162815  0.09895864    -0.81030
O563        O  0.40803453  0.72016884  0.04008418    -0.79230
O564        O  0.39993242  0.75019426  0.10650941    -1.15360
O565        O  0.37243900  0.68255717  0.08973925    -0.74560
C566        C  0.34044275  0.69070101  0.09861640     0.96160
C567        C  0.40694935  0.80885621  0.16675390     0.92560
Al568      Al  0.41649961  0.79305228  0.08953800     1.55560
O569        O  0.38291640  0.70964211  0.16591124    -0.79180
C570        C  0.41367742  0.74955595  0.02348498     0.96720
C571        C  0.34189362  0.81127741  0.09793958     0.91600
O572        O  0.33971236  0.78969481  0.12399280    -0.84500
O573        O  0.22574863  0.89203179  0.16924298    -0.83960
C574        C  0.25756963  0.91118265  0.02080932     0.95400
O575        O  0.22813781  0.91789344  0.03682306    -0.73070
O576        O  0.19279367  0.86605161  0.07246762    -0.76670
Al577      Al  0.21147735  0.91383308  0.08522247     1.48980
C578        C  0.19186322  0.83976158  0.09443304     0.90650
O579        O  0.28288074  0.83196355  0.10877719    -0.82890
O580        O  0.31573404  0.92869812  0.13527980    -0.76450
Al581      Al  0.25432536  0.86393897  0.13707879     1.90120
O582        O  0.32282258  0.87115196  0.08832399    -0.75510
O583        O  0.28042618  0.96452634  0.08349320    -0.75360
O584        O  0.28645533  0.90593297  0.03820471    -0.81030
O585        O  0.22213384  0.96304445  0.09550237    -0.79230
O586        O  0.25430722  0.89802477  0.10318288    -1.15360
O587        O  0.18587901  0.91284250  0.13016654    -0.74560
C588        C  0.19483533  0.90497294  0.16216720     0.96160
C589        C  0.31385238  0.83910801  0.09603312     0.92560
Al590      Al  0.29712617  0.91608885  0.08743972     1.55560
O591        O  0.21349063  0.83883876  0.12064863    -0.79180
C592        C  0.25096881  0.98049953  0.09024255     0.96720
C593        C  0.31668669  0.90660789  0.16146872     0.91600
O594        O  0.29516346  0.88029450  0.16222876    -0.84500
O595        O  0.29503285  0.61920375  0.16340920    -0.83960
C596        C  0.25379958  0.58936701  0.02237012     0.95400
O597        O  0.28310481  0.59574723  0.03881448    -0.73070
O598        O  0.32106719  0.63055632  0.08909257    -0.76670
Al599      Al  0.29570522  0.58525689  0.08772739     1.48980
C600        C  0.31245361  0.66248766  0.09801744     0.90650
O601        O  0.21332196  0.66233794  0.12412785    -0.82890
O602        O  0.18623476  0.58754325  0.13444160    -0.76450
Al603      Al  0.25404480  0.63665052  0.13991641     1.90120
O604        O  0.19228503  0.63356048  0.07675371    -0.75510
O605        O  0.22191332  0.53712183  0.09847800    -0.75360
O606        O  0.22514101  0.58232714  0.03952403    -0.81030
O607        O  0.27948268  0.53674444  0.08322052    -0.79230
O608        O  0.25341565  0.60265836  0.10545214    -1.15120
O609        O  0.31575769  0.57185920  0.13443723    -0.74560
C610        C  0.31681240  0.59312869  0.16122657     0.96160
C611        C  0.19221713  0.66067315  0.09759981     0.92560
Al612      Al  0.21051033  0.58639048  0.08878501     1.55560
O613        O  0.28188898  0.66923832  0.11166214    -0.79180
C614        C  0.25064712  0.52018102  0.09096598     0.96720
C615        C  0.19517522  0.59549870  0.16647746     0.91600
O616        O  0.22593224  0.60880310  0.17318742    -0.84500
O617        O  0.29573223  0.65948111  0.38142440    -0.83960
C618        C  0.25505556  0.51883466  0.41269575     0.95400
O619        O  0.28427096  0.53548520  0.40643570    -0.73070
O620        O  0.32112436  0.58581055  0.37062119    -0.76670
Al621      Al  0.29670254  0.58450191  0.41653256     1.48980
C622        C  0.31216474  0.59447220  0.33868038     0.90650
O623        O  0.21247988  0.62000984  0.34186675    -0.82890
O624        O  0.18707543  0.63080598  0.41554575    -0.76450
Al625      Al  0.25410748  0.63584370  0.36554631     1.90120
O626        O  0.19186469  0.57217696  0.37001374    -0.75510
O627        O  0.22387617  0.59497090  0.46592229    -0.75360
O628        O  0.22645385  0.53572050  0.42069276    -0.81030
O629        O  0.28168162  0.58068018  0.46568200    -0.79230
O630        O  0.25408477  0.60165777  0.39973596    -1.15360
O631        O  0.31628459  0.63132831  0.42927605    -0.74560
C632        C  0.31740493  0.65769522  0.40757799     0.96160
C633        C  0.19077334  0.59388150  0.34364218     0.92560
Al634      Al  0.21145253  0.58488607  0.41687039     1.55560
O635        O  0.28118631  0.60733397  0.33215906    -0.79180
C636        C  0.25309354  0.58869957  0.48257404     0.96720
C637        C  0.19604429  0.66274030  0.40686607     0.91600
O638        O  0.22703113  0.66925927  0.39402327    -0.84500
O639        O  0.33408270  0.61017415  0.28028064    -0.83960
C640        C  0.48408796  0.58755491  0.25234978     0.95400
O641        O  0.46691479  0.58196758  0.28124464    -0.73070
O642        O  0.42973449  0.63300927  0.31422656    -0.76670
Al643      Al  0.41791537  0.58577389  0.29550327     1.48980
C644        C  0.40984825  0.66083454  0.31326353     0.90650
O645        O  0.39674145  0.66755756  0.22226182    -0.82890
O646        O  0.37199042  0.57142909  0.18959693    -0.76450
Al647      Al  0.36790175  0.63654171  0.25116593     1.90120
O648        O  0.41950979  0.62837381  0.18373318    -0.75510
O649        O  0.42218413  0.53530293  0.22638168    -0.75360
O650        O  0.46792352  0.59270591  0.22267653    -0.81030
O651        O  0.40871977  0.53631688  0.28433370    -0.79230
O652        O  0.40160080  0.60183931  0.25222544    -1.15360
O653        O  0.37223578  0.58667252  0.31930130    -0.74560
C654        C  0.34045677  0.59561495  0.31058281     0.96160
C655        C  0.41079728  0.66035630  0.19191685     0.92560
Al656      Al  0.41903087  0.58356855  0.20990076     1.55560
O657        O  0.38427502  0.66301824  0.29111689    -0.79180
C658        C  0.41539294  0.51908760  0.25557877     0.96720
C659        C  0.34532558  0.59291518  0.18911218     0.91600
O660        O  0.34370836  0.61884280  0.21100183    -0.84500
O661        O  0.17317238  0.60889472  0.22527872    -0.83960
C662        C  0.02364484  0.58679615  0.25329291     0.95400
O663        O  0.04057063  0.58006519  0.22446688    -0.73070
O664        O  0.07655213  0.63087800  0.18986811    -0.76670
Al665      Al  0.08943843  0.58394648  0.20979619     1.48980
C666        C  0.09737164  0.65796897  0.18965006     0.90650
O667        O  0.10964919  0.66743810  0.28132441    -0.82890
O668        O  0.13626812  0.57157743  0.31517304    -0.76450
Al669      Al  0.13904463  0.63582197  0.25326442     1.90120
O670        O  0.08845016  0.62828721  0.32078232    -0.75510
O671        O  0.08669004  0.53422979  0.28001988    -0.75360
O672        O  0.04001178  0.59185177  0.28286869    -0.81030
O673        O  0.09944192  0.53470024  0.22191000    -0.79230
O674        O  0.10581713  0.60081932  0.25279874    -1.15360
O675        O  0.13533058  0.58539429  0.18585645    -0.74560
C676        C  0.16699247  0.59493128  0.19467867     0.96160
C677        C  0.09652707  0.66032652  0.31214685     0.92560
Al678      Al  0.08904458  0.58302730  0.29543278     1.55560
O679        O  0.12267931  0.66021888  0.21220318    -0.79180
C680        C  0.09401651  0.51771914  0.25112415     0.96720
C681        C  0.16233781  0.59367908  0.31585654     0.91600
O682        O  0.16336678  0.61981576  0.29419441    -0.84500
O683        O  0.17418600  0.72124315  0.39140998    -0.83960
C684        C  0.02411093  0.74902886  0.41369303     0.95400
O685        O  0.04130873  0.72019382  0.41951353    -0.73070
O686        O  0.07825824  0.68736955  0.36818164    -0.76670
Al687      Al  0.09028483  0.70589076  0.41543686     1.48980
C688        C  0.09834226  0.68812047  0.34048896     0.90650
O689        O  0.11152635  0.77887217  0.33362462    -0.82890
O690        O  0.13618640  0.81171680  0.42987287    -0.76450
Al691      Al  0.14039227  0.75015647  0.36478904     1.90120
O692        O  0.08887342  0.81754628  0.37275146    -0.75510
O693        O  0.08583230  0.77491281  0.46582858    -0.75360
O694        O  0.04026779  0.77866153  0.40824535    -0.81030
O695        O  0.09974520  0.71703955  0.46482604    -0.79230
O696        O  0.10661878  0.74913738  0.39938740    -1.15360
O697        O  0.13591214  0.68199304  0.41432340    -0.74560
C698        C  0.16775002  0.69082178  0.40569468     0.96160
C699        C  0.09756717  0.80927799  0.34078370     0.92560
Al700      Al  0.08914987  0.79143832  0.41757489     1.55560
O701        O  0.12414874  0.71002891  0.33844931    -0.79180
C702        C  0.09288300  0.74576530  0.48204394     0.96720
C703        C  0.16283500  0.81230519  0.40836161     0.91600
O704        O  0.16445251  0.79047717  0.38237745    -0.84500
O705        O  0.17502894  0.88784718  0.28074545    -0.83960
C706        C  0.02541221  0.90889849  0.24865842     0.95400
O707        O  0.04209500  0.91535117  0.27770448    -0.73070
O708        O  0.07911455  0.86514750  0.31317165    -0.76670
Al709      Al  0.09090380  0.91205456  0.29340832     1.48980
C710        C  0.09931513  0.83748935  0.31295062     0.90650
O711        O  0.11596315  0.82778043  0.22227504    -0.82890
O712        O  0.13913152  0.92334302  0.18930180    -0.76450
Al713      Al  0.14294739  0.86039220  0.25150486     1.90120
O714        O  0.09246866  0.86655357  0.18386036    -0.75510
O715        O  0.08877166  0.96100092  0.22267354    -0.75360
O716        O  0.04239419  0.90286452  0.21958304    -0.81030
O717        O  0.09996047  0.96133194  0.28106445    -0.79230
O718        O  0.10855981  0.89481359  0.25102490    -1.15360
O719        O  0.13602454  0.91198274  0.31858831    -0.74560
C720        C  0.16795114  0.90270868  0.31066483     0.96160
C721        C  0.10142689  0.83468595  0.19218064     0.92560
Al722      Al  0.09203894  0.91186438  0.20812295     1.55560
O723        O  0.12525167  0.83505000  0.29124846    -0.79180
C724        C  0.09474983  0.97794390  0.25161675     0.96720
C725        C  0.16678415  0.90322289  0.19000721     0.91600
O726        O  0.16904152  0.87740873  0.21184826    -0.84500
O727        O  0.34310468  0.88039627  0.21205563    -0.83960
C728        C  0.48553151  0.90951595  0.24917685     0.95400
O729        O  0.46783936  0.90327738  0.22066124    -0.73070
O730        O  0.41618170  0.86894842  0.18543116    -0.76670
Al731      Al  0.41859967  0.91444927  0.21011572     1.48980
C732        C  0.40779872  0.83703191  0.19468644     0.90650
O733        O  0.38380340  0.83967721  0.29474332    -0.82890
O734        O  0.37609497  0.91256074  0.32159903    -0.76450
Al735      Al  0.36772622  0.86413523  0.25348752     1.90120
O736        O  0.43347588  0.86562392  0.31380791    -0.75510
O737        O  0.41059855  0.96232050  0.28454126    -0.75360
O738        O  0.46957656  0.91723372  0.27846051    -0.81030
O739        O  0.42359917  0.96312636  0.22638152    -0.79230
O740        O  0.40255033  0.89732483  0.25298460    -1.15360
O741        O  0.37119117  0.92813715  0.19146768    -0.74560
C742        C  0.34469176  0.90650710  0.19024344     0.96160
C743        C  0.41073236  0.84007834  0.31553153     0.92560
Al744      Al  0.42095515  0.91331614  0.29547373     1.55560
O745        O  0.39502440  0.83046277  0.22571806    -0.79180
C746        C  0.41627648  0.97943452  0.25558147     0.96720
C747        C  0.34384570  0.90572206  0.31257704     0.91600
O748        O  0.33641004  0.89376093  0.28138051    -0.84500
O749        O  0.29502929  0.87713532  0.33912513    -0.83960
C750        C  0.25779174  0.91045992  0.48114787     0.95400
O751        O  0.28649722  0.90301790  0.46415221    -0.73070
O752        O  0.32205429  0.86699951  0.41373049    -0.76670
Al753      Al  0.29777360  0.91268128  0.41488887     1.48980
C754        C  0.31303419  0.83492925  0.40595946     0.90650
O755        O  0.21313791  0.83805833  0.38213210    -0.82890
O756        O  0.18720132  0.91230035  0.37084921    -0.76450
Al757      Al  0.25421660  0.86148339  0.36478869     1.90120
O758        O  0.19250262  0.86691247  0.42956658    -0.75510
O759        O  0.22509179  0.96257279  0.40572785    -0.75360
O760        O  0.22887584  0.91811692  0.46466181    -0.81030
O761        O  0.28309738  0.96192661  0.41896387    -0.79230
O762        O  0.25484968  0.89596723  0.39873650    -1.15360
O763        O  0.31589017  0.92471472  0.36767528    -0.74560
C764        C  0.31606176  0.90373245  0.34067173     0.96160
C765        C  0.19136865  0.84019207  0.40821424     0.92560
Al766      Al  0.21255992  0.91364844  0.41617704     1.55560
O767        O  0.28222969  0.82821039  0.39275264    -0.79180
C768        C  0.25439222  0.97904552  0.41202970     0.96720
C769        C  0.19588887  0.90341450  0.33891835     0.91600
O770        O  0.22648685  0.88982006  0.33220006    -0.84500
O771        O  0.33497110  0.77607353  0.39266011    -0.83960
C772        C  0.48455075  0.74805518  0.41454125     0.95400
O773        O  0.46761825  0.77685986  0.42134514    -0.73070
O774        O  0.43155899  0.81143974  0.37063839    -0.76670
Al775      Al  0.41873633  0.79149823  0.41755233     1.48980
C776        C  0.41075946  0.81161589  0.34354035     0.90650
O777        O  0.39837275  0.71997259  0.33401796    -0.82890
O778        O  0.37196602  0.68606631  0.42984987    -0.76450
Al779      Al  0.36906102  0.74806297  0.36570243     1.90120
O780        O  0.41972946  0.68054334  0.37310154    -0.75510
O781        O  0.42157330  0.72120600  0.46717065    -0.75360
O782        O  0.46819035  0.71846702  0.40949918    -0.81030
O783        O  0.40882428  0.77932801  0.46679557    -0.79230
O784        O  0.40234268  0.74850131  0.40065735    -1.15360
O785        O  0.37283953  0.81545631  0.41617350    -0.74560
C786        C  0.34117502  0.80667678  0.40660586     0.96160
C787        C  0.41158025  0.68917257  0.34108532     0.92560
Al788      Al  0.41916662  0.70585169  0.41837267     1.55560
O789        O  0.38543278  0.78908645  0.34130522    -0.79180
C790        C  0.41430000  0.75008973  0.48372432     0.96720
C791        C  0.34584114  0.68546198  0.40781337     0.91600
O792        O  0.34475694  0.70718128  0.38173757    -0.84500
O793        O  0.16523363  0.78932184  0.62071728    -0.83960
C794        C  0.02287753  0.75221365  0.59161704     0.95400
O795        O  0.04056112  0.78075161  0.59782832    -0.73070
O796        O  0.09222117  0.81608269  0.63205429    -0.76670
Al797      Al  0.08979196  0.79130131  0.58660666     1.48980
C798        C  0.10050767  0.80679619  0.66398059     0.90650
O799        O  0.12439600  0.70672037  0.66152429    -0.82890
O800        O  0.13222950  0.67978255  0.58863311    -0.76450
Al801      Al  0.14054679  0.74793294  0.63701531     1.90120
O802        O  0.07479407  0.68760433  0.63549842    -0.75510
O803        O  0.09782092  0.71683451  0.53880476    -0.75360
O804        O  0.03882111  0.72295062  0.58381626    -0.81030
O805        O  0.08474917  0.77498568  0.53797153    -0.79230
O806        O  0.10579935  0.74842402  0.60377369    -1.15360
O807        O  0.13725069  0.80989118  0.57290585    -0.74560
C808        C  0.16374058  0.81108460  0.59455790     0.96160
C809        C  0.09746606  0.68593055  0.66111159     0.92560
Al810      Al  0.08740107  0.70592306  0.58779916     1.55560
O811        O  0.11318480  0.77573328  0.67056591    -0.79180
C812        C  0.09207851  0.74577722  0.52168183     0.96720
C813        C  0.16446488  0.68878565  0.59554385     0.91600
O814        O  0.17190086  0.71998380  0.60750442    -0.84500
O815        O  0.33334634  0.72085278  0.61301001    -0.83960
C816        C  0.48301491  0.75266928  0.59238566     0.95400
O817        O  0.46632603  0.72369455  0.58553931    -0.73070
O818        O  0.42963552  0.68830006  0.63625118    -0.76670
Al819      Al  0.41753761  0.70784884  0.58928041     1.48980
C820        C  0.40910315  0.68819441  0.66368705     0.90650
O821        O  0.39271115  0.77859527  0.67362518    -0.82890
O822        O  0.36943881  0.81169391  0.57766472    -0.76450
Al823      Al  0.36551010  0.74971868  0.64081763     1.90120
O824        O  0.41567097  0.81735523  0.63485569    -0.75510
O825        O  0.42017925  0.77839808  0.54043456    -0.75360
O826        O  0.46603725  0.78162816  0.59895857    -0.81030
O827        O  0.40803468  0.72016884  0.54008409    -0.79230
O828        O  0.39993256  0.75019426  0.60650932    -1.15360
O829        O  0.37243913  0.68255716  0.58973915    -0.74560
C830        C  0.34044287  0.69070100  0.59861629     0.96160
C831        C  0.40694946  0.80885619  0.66675384     0.92560
Al832      Al  0.41649972  0.79305228  0.58953792     1.55560
O833        O  0.38291651  0.70964209  0.66591112    -0.79180
C834        C  0.41367755  0.74955596  0.52348490     0.96720
C835        C  0.34189374  0.81127741  0.59793951     0.91600
O836        O  0.33971250  0.78969480  0.62399273    -0.84500
O837        O  0.22574864  0.89203172  0.66924296    -0.83960
C838        C  0.25756969  0.91118260  0.52080929     0.95400
O839        O  0.22813785  0.91789333  0.53682304    -0.73070
O840        O  0.19279370  0.86605158  0.57246765    -0.76670
Al841      Al  0.21147741  0.91383304  0.58522244     1.48980
C842        C  0.19186330  0.83976153  0.59443305     0.90650
O843        O  0.28288087  0.83196353  0.60877721    -0.82890
O844        O  0.31573414  0.92869805  0.63527979    -0.76450
Al845      Al  0.25432543  0.86393893  0.63707878     1.90120
O846        O  0.32282265  0.87115194  0.58832393    -0.75510
O847        O  0.28042627  0.96452632  0.58349325    -0.75360
O848        O  0.28645540  0.90593301  0.53820468    -0.81030
O849        O  0.22213390  0.96304443  0.59550227    -0.79230
O850        O  0.25430728  0.89802474  0.60318287    -1.15360
O851        O  0.18587907  0.91284253  0.63016652    -0.74560
C852        C  0.19483536  0.90497293  0.66216718     0.96160
C853        C  0.31385248  0.83910800  0.59603309     0.92560
Al854      Al  0.29712625  0.91608883  0.58743971     1.55560
O855        O  0.21349075  0.83883870  0.62064860    -0.79180
C856        C  0.25096888  0.98049951  0.59024252     0.96720
C857        C  0.31668674  0.90660785  0.66146873     0.91600
O858        O  0.29516348  0.88029449  0.66222878    -0.84500
O859        O  0.29503285  0.61920376  0.66340922    -0.83960
C860        C  0.25379963  0.58936703  0.52237006     0.95400
O861        O  0.28310488  0.59574716  0.53881443    -0.73070
O862        O  0.32106725  0.63055633  0.58909247    -0.76670
Al863      Al  0.29570529  0.58525690  0.58772736     1.48980
C864        C  0.31245372  0.66248766  0.59801738     0.90650
O865        O  0.21332209  0.66233801  0.62412778    -0.82890
O866        O  0.18623481  0.58754320  0.63444157    -0.76450
Al867      Al  0.25404486  0.63665055  0.63991638     1.90120
O868        O  0.19228504  0.63356050  0.57675373    -0.75510
O869        O  0.22191337  0.53712184  0.59847788    -0.75360
O870        O  0.22514103  0.58232724  0.53952398    -0.81030
O871        O  0.27948277  0.53674445  0.58322057    -0.79230
O872        O  0.25341571  0.60265839  0.60545210    -1.15120
O873        O  0.31575778  0.57185927  0.63443720    -0.74560
C874        C  0.31681242  0.59312872  0.66122658     0.96160
C875        C  0.19221720  0.66067320  0.59759979     0.92560
Al876      Al  0.21051037  0.58639050  0.58878497     1.55560
O877        O  0.28188912  0.66923834  0.61166215    -0.79180
C878        C  0.25064718  0.52018102  0.59096595     0.96720
C879        C  0.19517524  0.59549870  0.66647743     0.91600
O880        O  0.22593222  0.60880319  0.67318737    -0.84500
O881        O  0.29573221  0.65948110  0.88142448    -0.83960
C882        C  0.25505553  0.51883465  0.91269579     0.95400
O883        O  0.28427094  0.53548519  0.90643575    -0.73070
O884        O  0.32112436  0.58581054  0.87062126    -0.76670
Al885      Al  0.29670252  0.58450190  0.91653263     1.48980
C886        C  0.31216475  0.59447219  0.83868045     0.90650
O887        O  0.21247989  0.62000983  0.84186681    -0.82890
O888        O  0.18707541  0.63080598  0.91554581    -0.76450
Al889      Al  0.25410747  0.63584369  0.86554637     1.90120
O890        O  0.19186467  0.57217696  0.87001381    -0.75510
O891        O  0.22387614  0.59497088  0.96592235    -0.75360
O892        O  0.22645382  0.53572049  0.92069281    -0.81030
O893        O  0.28168159  0.58068017  0.96568206    -0.79230
O894        O  0.25408475  0.60165776  0.89973602    -1.15360
O895        O  0.31628456  0.63132830  0.92927613    -0.74560
C896        C  0.31740490  0.65769521  0.90757808     0.96160
C897        C  0.19077335  0.59388149  0.84364224     0.92560
Al898      Al  0.21145250  0.58488606  0.91687045     1.55560
O899        O  0.28118630  0.60733395  0.83215913    -0.79180
C900        C  0.25309350  0.58869956  0.98257410     0.96720
C901        C  0.19604428  0.66274030  0.90686612     0.91600
O902        O  0.22703111  0.66925926  0.89402332    -0.84500
O903        O  0.33408272  0.61017431  0.78028076    -0.83960
C904        C  0.48408797  0.58755494  0.75234984     0.95400
O905        O  0.46691481  0.58196774  0.78124472    -0.73070
O906        O  0.42973437  0.63300927  0.81422671    -0.76670
Al907      Al  0.41791538  0.58577391  0.79550333     1.48980
C908        C  0.40984822  0.66083460  0.81326358     0.90650
O909        O  0.39674141  0.66755756  0.72226172    -0.82890
O910        O  0.37199045  0.57142917  0.68959690    -0.76450
Al911      Al  0.36790176  0.63654177  0.75116594     1.90120
O912        O  0.41950991  0.62837379  0.68373319    -0.75510
O913        O  0.42218403  0.53530292  0.72638168    -0.75360
O914        O  0.46792353  0.59270580  0.72267657    -0.81030
O915        O  0.40871991  0.53631688  0.78433375    -0.79230
O916        O  0.40160081  0.60183934  0.75222548    -1.15360
O917        O  0.37223576  0.58667243  0.81930131    -0.74560
C918        C  0.34045677  0.59561497  0.81058287     0.96160
C919        C  0.41079734  0.66035628  0.69191680     0.92560
Al920      Al  0.41903088  0.58356855  0.70990079     1.55560
O921        O  0.38427510  0.66301837  0.79111682    -0.79180
C922        C  0.41539296  0.51908760  0.75557880     0.96720
C923        C  0.34532557  0.59291521  0.68911221     0.91600
O924        O  0.34370832  0.61884278  0.71100191    -0.84500
O925        O  0.17317241  0.60889465  0.72527871    -0.83960
C926        C  0.02364486  0.58679616  0.75329299     0.95400
O927        O  0.04057065  0.58006520  0.72446696    -0.73070
O928        O  0.07655217  0.63087797  0.68986814    -0.76670
Al929      Al  0.08943845  0.58394645  0.70979625     1.48980
C930        C  0.09737169  0.65796894  0.68965008     0.90650
O931        O  0.10964931  0.66743809  0.78132444    -0.82890
O932        O  0.13626812  0.57157745  0.81517313    -0.76450
Al933      Al  0.13904470  0.63582192  0.75326443     1.90120
O934        O  0.08845018  0.62828725  0.82078234    -0.75510
O935        O  0.08669006  0.53422980  0.78001998    -0.75360
O936        O  0.04001180  0.59185178  0.78286876    -0.81030
O937        O  0.09944191  0.53470022  0.72191008    -0.79230
O938        O  0.10581716  0.60081931  0.75279879    -1.15360
O939        O  0.13533059  0.58539423  0.68585646    -0.74560
C940        C  0.16699250  0.59493123  0.69467866     0.96160
C941        C  0.09652714  0.66032654  0.81214686     0.92560
Al942      Al  0.08904460  0.58302732  0.79543284     1.55560
O943        O  0.12267937  0.66021884  0.71220320    -0.79180
C944        C  0.09401651  0.51771913  0.75112425     0.96720
C945        C  0.16233784  0.59367906  0.81585658     0.91600
O946        O  0.16336686  0.61981569  0.79419440    -0.84500
O947        O  0.17418600  0.72124317  0.89141004    -0.83960
C948        C  0.02411091  0.74902887  0.91369305     0.95400
O949        O  0.04130872  0.72019383  0.91951353    -0.73070
O950        O  0.07825824  0.68736959  0.86818162    -0.76670
Al951      Al  0.09028481  0.70589078  0.91543685     1.48980
C952        C  0.09834230  0.68812051  0.84048896     0.90650
O953        O  0.11152640  0.77887221  0.83362465    -0.82890
O954        O  0.13618636  0.81171685  0.92987289    -0.76450
Al955      Al  0.14039230  0.75015651  0.86478908     1.90120
O956        O  0.08887339  0.81754631  0.87275147    -0.75510
O957        O  0.08583228  0.77491282  0.96582858    -0.75360
O958        O  0.04026776  0.77866155  0.90824537    -0.81030
O959        O  0.09974517  0.71703955  0.96482603    -0.79230
O960        O  0.10661877  0.74913741  0.89938741    -1.15360
O961        O  0.13591212  0.68199305  0.91432340    -0.74560
C962        C  0.16775000  0.69082179  0.90569471     0.96160
C963        C  0.09756718  0.80927802  0.84078371     0.92560
Al964      Al  0.08914985  0.79143835  0.91757490     1.55560
O965        O  0.12414877  0.71002894  0.83844933    -0.79180
C966        C  0.09288296  0.74576530  0.98204393     0.96720
C967        C  0.16283498  0.81230522  0.90836165     0.91600
O968        O  0.16445252  0.79047719  0.88237751    -0.84500
O969        O  0.17502901  0.88784729  0.78074539    -0.83960
C970        C  0.02541226  0.90889849  0.74865842     0.95400
O971        O  0.04209504  0.91535126  0.77770446    -0.73070
O972        O  0.07911450  0.86514748  0.81317159    -0.76670
Al973      Al  0.09090383  0.91205456  0.79340834     1.48980
C974        C  0.09931516  0.83748938  0.81295063     0.90650
O975        O  0.11596312  0.82778043  0.72227513    -0.82890
O976        O  0.13913160  0.92334312  0.68930188    -0.76450
Al977      Al  0.14294743  0.86039223  0.75150488     1.90120
O978        O  0.09246880  0.86655360  0.68386037    -0.75510
O979        O  0.08877162  0.96100093  0.72267362    -0.75360
O980        O  0.04239425  0.90286445  0.71958305    -0.81030
O981        O  0.09996059  0.96133194  0.78106451    -0.79230
O982        O  0.10855985  0.89481361  0.75102492    -1.15360
O983        O  0.13602456  0.91198264  0.81858835    -0.74560
C984        C  0.16795118  0.90270868  0.81066483     0.96160
C985        C  0.10142695  0.83468596  0.69218069     0.92560
Al986      Al  0.09203899  0.91186441  0.70812299     1.55560
O987        O  0.12525177  0.83505009  0.79124856    -0.79180
C988        C  0.09474985  0.97794390  0.75161682     0.96720
C989        C  0.16678418  0.90322291  0.69000721     0.91600
O990        O  0.16904150  0.87740870  0.71184821    -0.84500
O991        O  0.34310472  0.88039622  0.71205566    -0.83960
C992        C  0.48553157  0.90951590  0.74917686     0.95400
O993        O  0.46783942  0.90327737  0.72066124    -0.73070
O994        O  0.41618178  0.86894839  0.68543115    -0.76670
Al995      Al  0.41859972  0.91444923  0.71011573     1.48980
C996        C  0.40779880  0.83703188  0.69468640     0.90650
O997        O  0.38380348  0.83967712  0.79474330    -0.82890
O998        O  0.37609501  0.91256073  0.82159905    -0.76450
Al999      Al  0.36772628  0.86413516  0.75348752     1.90120
O1000       O  0.43347590  0.86562388  0.81380797    -0.75510
O1001       O  0.41059862  0.96232046  0.78454128    -0.75360
O1002       O  0.46957662  0.91723364  0.77846052    -0.81030
O1003       O  0.42359920  0.96312633  0.72638153    -0.79230
O1004       O  0.40255039  0.89732478  0.75298461    -1.15360
O1005       O  0.37119122  0.92813710  0.69146770    -0.74560
C1006       C  0.34469181  0.90650706  0.69024346     0.96160
C1007       C  0.41073239  0.84007829  0.81553158     0.92560
Al1008     Al  0.42095520  0.91331610  0.79547376     1.55560
O1009       O  0.39502447  0.83046272  0.72571802    -0.79180
C1010       C  0.41627652  0.97943449  0.75558148     0.96720
C1011       C  0.34384575  0.90572200  0.81257708     0.91600
O1012       O  0.33641009  0.89376081  0.78138057    -0.84500
O1013       O  0.29502933  0.87713528  0.83912520    -0.83960
C1014       C  0.25779170  0.91045997  0.98114790     0.95400
O1015       O  0.28649718  0.90301793  0.96415225    -0.73070
O1016       O  0.32205427  0.86699953  0.91373056    -0.76670
Al1017     Al  0.29777359  0.91268130  0.91488891     1.48980
C1018       C  0.31303416  0.83492927  0.90595957     0.90650
O1019       O  0.21313790  0.83805836  0.88213215    -0.82890
O1020       O  0.18720134  0.91230035  0.87084921    -0.76450
Al1021     Al  0.25421661  0.86148339  0.86478875     1.90120
O1022       O  0.19250261  0.86691251  0.92956661    -0.75510
O1023       O  0.22509178  0.96257280  0.90572785    -0.75360
O1024       O  0.22887580  0.91811698  0.96466183    -0.81030
O1025       O  0.28309736  0.96192663  0.91896390    -0.79230
O1026       O  0.25484967  0.89596725  0.89873653    -1.15360
O1027       O  0.31589019  0.92471472  0.86767531    -0.74560
C1028       C  0.31606180  0.90373241  0.84067179     0.96160
C1029       C  0.19136863  0.84019211  0.90821428     0.92560
Al1030     Al  0.21255991  0.91364846  0.91617705     1.55560
O1031       O  0.28222965  0.82821040  0.89275275    -0.79180
C1032       C  0.25439220  0.97904554  0.91202973     0.96720
C1033       C  0.19588890  0.90341449  0.83891836     0.91600
O1034       O  0.22648688  0.88982006  0.83220008    -0.84500
O1035       O  0.33497105  0.77607354  0.89266026    -0.83960
C1036       C  0.48455069  0.74805518  0.91454131     0.95400
O1037       O  0.46761820  0.77685985  0.92134525    -0.73070
O1038       O  0.43155895  0.81143973  0.87063849    -0.76670
Al1039     Al  0.41873628  0.79149823  0.91755243     1.48980
C1040       C  0.41075943  0.81161588  0.84354044     0.90650
O1041       O  0.39837266  0.71997264  0.83401805    -0.82890
O1042       O  0.37196597  0.68606632  0.92984997    -0.76450
Al1043     Al  0.36906095  0.74806300  0.86570254     1.90120
O1044       O  0.41972938  0.68054337  0.87310161    -0.75510
O1045       O  0.42157324  0.72120600  0.96717074    -0.75360
O1046       O  0.46819028  0.71846702  0.90949924    -0.81030
O1047       O  0.40882421  0.77932800  0.96679566    -0.79230
O1048       O  0.40234262  0.74850132  0.90065745    -1.15360
O1049       O  0.37283949  0.81545633  0.91617360    -0.74560
C1050       C  0.34117497  0.80667680  0.90660599     0.96160
C1051       C  0.41158018  0.68917261  0.84108539     0.92560
Al1052     Al  0.41916656  0.70585170  0.91837275     1.55560
O1053       O  0.38543271  0.78908649  0.84130534    -0.79180
C1054       C  0.41429992  0.75008973  0.98372441     0.96720
C1055       C  0.34584109  0.68546199  0.90781347     0.91600
O1056       O  0.34475687  0.70718130  0.88173768    -0.84500
O1057       O  0.66523363  0.28932184  0.12071718    -0.83960
C1058       C  0.52287747  0.25221369  0.09161703     0.95400
O1059       O  0.54056108  0.28075164  0.09782832    -0.73070
O1060       O  0.59222117  0.31608268  0.13205426    -0.76670
Al1061     Al  0.58979192  0.29130132  0.08660663     1.48980
C1062       C  0.60050770  0.30679617  0.16398055     0.90650
O1063       O  0.62439601  0.20672035  0.16152419    -0.82890
O1064       O  0.63222941  0.17978252  0.08863311    -0.76450
Al1065     Al  0.64054679  0.24793293  0.13701521     1.90120
O1066       O  0.57479399  0.18760441  0.13549842    -0.75510
O1067       O  0.59782086  0.21683450  0.03880474    -0.75360
O1068       O  0.53882104  0.22295066  0.08381622    -0.81030
O1069       O  0.58474911  0.27498568  0.03797150    -0.79230
O1070       O  0.60579931  0.24842403  0.10377364    -1.15360
O1071       O  0.63725065  0.30989121  0.07290579    -0.74560
C1072       C  0.66374055  0.31108463  0.09455783     0.96160
C1073       C  0.59746602  0.18593058  0.16111155     0.92560
Al1074     Al  0.58740099  0.20592308  0.08779913     1.55560
O1075       O  0.61318485  0.27573326  0.17056585    -0.79180
C1076       C  0.59207844  0.24577721  0.02168181     0.96720
C1077       C  0.66446481  0.18878561  0.09554379     0.91600
O1078       O  0.67190081  0.21998380  0.10750426    -0.84500
O1079       O  0.83334616  0.22085284  0.11301014    -0.83960
C1080       C  0.98301475  0.25266934  0.09238576     0.95400
O1081       O  0.96632586  0.22369463  0.08553939    -0.73070
O1082       O  0.92963539  0.18830017  0.13625131    -0.76670
Al1083     Al  0.91753744  0.20784891  0.08928055     1.48980
C1084       C  0.90910301  0.18819450  0.16368718     0.90650
O1085       O  0.89271099  0.27859533  0.17362530    -0.82890
O1086       O  0.86943868  0.31169392  0.07766482    -0.76450
Al1087     Al  0.86550993  0.24971874  0.14081777     1.90120
O1088       O  0.91567079  0.31735528  0.13485580    -0.75510
O1089       O  0.92017915  0.27839812  0.04043470    -0.75360
O1090       O  0.96603710  0.28162821  0.09895875    -0.81030
O1091       O  0.90803446  0.22016891  0.04008423    -0.79230
O1092       O  0.89993239  0.25019432  0.10650945    -1.15360
O1093       O  0.87243898  0.18255722  0.08973933    -0.74560
C1094       C  0.84044271  0.19070106  0.09861644     0.96160
C1095       C  0.90694930  0.30885624  0.16675395     0.92560
Al1096     Al  0.91649958  0.29305233  0.08953805     1.55560
O1097       O  0.88291634  0.20964214  0.16591126    -0.79180
C1098       C  0.91367741  0.24955602  0.02348504     0.96720
C1099       C  0.84189361  0.31127745  0.09793960     0.91600
O1100       O  0.83971235  0.28969488  0.12399284    -0.84500
O1101       O  0.72574863  0.39203184  0.16924296    -0.83960
C1102       C  0.75756966  0.41118265  0.02080930     0.95400
O1103       O  0.72813784  0.41789345  0.03682304    -0.73070
O1104       O  0.69279370  0.36605161  0.07246759    -0.76670
Al1105     Al  0.71147736  0.41383308  0.08522244     1.48980
C1106       C  0.69186324  0.33976159  0.09443302     0.90650
O1107       O  0.78288074  0.33196359  0.10877719    -0.82890
O1108       O  0.81573403  0.42869816  0.13527980    -0.76450
Al1109     Al  0.75432536  0.36393900  0.13707878     1.90120
O1110       O  0.82282259  0.37115199  0.08832401    -0.75510
O1111       O  0.78042619  0.46452634  0.08349316    -0.75360
O1112       O  0.78645536  0.40593297  0.03820470    -0.81030
O1113       O  0.72213385  0.46304446  0.09550234    -0.79230
O1114       O  0.75430722  0.39802480  0.10318286    -1.15360
O1115       O  0.68587900  0.41284250  0.13016650    -0.74560
C1116       C  0.69483532  0.40497297  0.16216716     0.96160
C1117       C  0.81385238  0.33910805  0.09603313     0.92560
Al1118     Al  0.79712619  0.41608887  0.08743971     1.55560
O1119       O  0.71349064  0.33883879  0.12064863    -0.79180
C1120       C  0.75096882  0.48049953  0.09024251     0.96720
C1121       C  0.81668668  0.40660793  0.16146872     0.91600
O1122       O  0.79516345  0.38029454  0.16222875    -0.84500
O1123       O  0.79503284  0.11920384  0.16340924    -0.83960
C1124       C  0.75379958  0.08936702  0.02237018     0.95400
O1125       O  0.78310480  0.09574729  0.03881455    -0.73070
O1126       O  0.82106717  0.13055637  0.08909265    -0.76670
Al1127     Al  0.79570521  0.08525693  0.08772745     1.48980
C1128       C  0.81245359  0.16248771  0.09801748     0.90650
O1129       O  0.71332192  0.16233796  0.12412786    -0.82890
O1130       O  0.68623476  0.08754329  0.13444165    -0.76450
Al1131     Al  0.75404477  0.13665058  0.13991644     1.90120
O1132       O  0.69228503  0.13356047  0.07675372    -0.75510
O1133       O  0.72191333  0.03712185  0.09847811    -0.75360
O1134       O  0.72514101  0.08232711  0.03952409    -0.81030
O1135       O  0.77948267  0.03674447  0.08322057    -0.79230
O1136       O  0.75341564  0.10265840  0.10545219    -1.15120
O1137       O  0.81575765  0.07185925  0.13443730    -0.74560
C1138       C  0.81681237  0.09312876  0.16122663     0.96160
C1139       C  0.69221711  0.16067316  0.09759980     0.92560
Al1140     Al  0.71051032  0.08639048  0.08878507     1.55560
O1141       O  0.78188893  0.16923838  0.11166215    -0.79180
C1142       C  0.75064712  0.02018104  0.09096606     0.96720
C1143       C  0.69517522  0.09549876  0.16647751     0.91600
O1144       O  0.72593224  0.10880317  0.17318746    -0.84500
O1145       O  0.79573224  0.15948112  0.38142442    -0.83960
C1146       C  0.75505555  0.01883467  0.41269579     0.95400
O1147       O  0.78427095  0.03548521  0.40643573    -0.73070
O1148       O  0.82112435  0.08581058  0.37062123    -0.76670
Al1149     Al  0.79670252  0.08450194  0.41653260     1.48980
C1150       C  0.81216473  0.09447222  0.33868042     0.90650
O1151       O  0.71247988  0.12000989  0.34186677    -0.82890
O1152       O  0.68707543  0.13080602  0.41554574    -0.76450
Al1153     Al  0.75410748  0.13584373  0.36554633     1.90120
O1154       O  0.69186470  0.07217699  0.37001374    -0.75510
O1155       O  0.72387615  0.09497093  0.46592230    -0.75360
O1156       O  0.72645384  0.03572052  0.42069278    -0.81030
O1157       O  0.78168160  0.08068020  0.46568202    -0.79230
O1158       O  0.75408476  0.10165779  0.39973598    -1.15360
O1159       O  0.81628457  0.13132833  0.42927609    -0.74560
C1160       C  0.81740493  0.15769524  0.40757802     0.96160
C1161       C  0.69077335  0.09388153  0.34364219     0.92560
Al1162     Al  0.71145252  0.08488610  0.41687040     1.55560
O1163       O  0.78118629  0.10733398  0.33215909    -0.79180
C1164       C  0.75309351  0.08869960  0.48257406     0.96720
C1165       C  0.69604429  0.16274034  0.40686606     0.91600
O1166       O  0.72703114  0.16925931  0.39402329    -0.84500
O1167       O  0.83408268  0.11017422  0.28028070    -0.83960
C1168       C  0.98408792  0.08755496  0.25234983     0.95400
O1169       O  0.96691476  0.08196763  0.28124468    -0.73070
O1170       O  0.92973447  0.13300931  0.31422661    -0.76670
Al1171     Al  0.91791535  0.08577394  0.29550332     1.48980
C1172       C  0.90984823  0.16083459  0.31326358     0.90650
O1173       O  0.89674142  0.16755762  0.22226187    -0.82890
O1174       O  0.87199037  0.07142915  0.18959699    -0.76450
Al1175     Al  0.86790173  0.13654178  0.25116598     1.90120
O1176       O  0.91950976  0.12837386  0.18373323    -0.75510
O1177       O  0.92218408  0.03530297  0.22638173    -0.75360
O1178       O  0.96792348  0.09270595  0.22267658    -0.81030
O1179       O  0.90871976  0.03631693  0.28433376    -0.79230
O1180       O  0.90160077  0.10183936  0.25222550    -1.15360
O1181       O  0.87223577  0.08667257  0.31930135    -0.74560
C1182       C  0.84045675  0.09561499  0.31058286     0.96160
C1183       C  0.91079725  0.16035635  0.19191690     0.92560
Al1184     Al  0.91903083  0.08356860  0.20990081     1.55560
O1185       O  0.88427501  0.16301830  0.29111694    -0.79180
C1186       C  0.91539291  0.01908765  0.25557883     0.96720
C1187       C  0.84532554  0.09291525  0.18911225     0.91600
O1188       O  0.84370833  0.11884287  0.21100188    -0.84500
O1189       O  0.67317238  0.10889477  0.22527876    -0.83960
C1190       C  0.52364486  0.08679619  0.25329294     0.95400
O1191       O  0.54057065  0.08006519  0.22446692    -0.73070
O1192       O  0.57655212  0.13087803  0.18986813    -0.76670
Al1193     Al  0.58943844  0.08394650  0.20979621     1.48980
C1194       C  0.59737164  0.15796900  0.18965005     0.90650
O1195       O  0.60964914  0.16743815  0.28132439    -0.82890
O1196       O  0.63626815  0.07157745  0.31517301    -0.76450
Al1197     Al  0.63904462  0.13582202  0.25326443     1.90120
O1198       O  0.58845021  0.12828724  0.32078234    -0.75510
O1199       O  0.58669002  0.03422982  0.28001989    -0.75360
O1200       O  0.54001180  0.09185184  0.28286871    -0.81030
O1201       O  0.59944197  0.03470026  0.22191002    -0.79230
O1202       O  0.60581714  0.10081936  0.25279876    -1.15360
O1203       O  0.63533059  0.08539435  0.18585648    -0.74560
C1204       C  0.66699248  0.09493133  0.19467872     0.96160
C1205       C  0.59652706  0.16032656  0.31214684     0.92560
Al1206     Al  0.58904459  0.08302734  0.29543279     1.55560
O1207       O  0.62267931  0.16021891  0.21220317    -0.79180
C1208       C  0.59401652  0.01771916  0.25112417     0.96720
C1209       C  0.66233782  0.09367913  0.31585654     0.91600
O1210       O  0.66336676  0.11981584  0.29419445    -0.84500
O1211       O  0.67418600  0.22124319  0.39140995    -0.83960
C1212       C  0.52411093  0.24902890  0.41369300     0.95400
O1213       O  0.54130874  0.22019386  0.41951352    -0.73070
O1214       O  0.57825822  0.18736960  0.36818162    -0.76670
Al1215     Al  0.59028483  0.20589080  0.41543683     1.48980
C1216       C  0.59834225  0.18812052  0.34048894     0.90650
O1217       O  0.61152633  0.27887221  0.33362460    -0.82890
O1218       O  0.63618640  0.31171683  0.42987286    -0.76450
Al1219     Al  0.64039227  0.25015652  0.36478901     1.90120
O1220       O  0.58887342  0.31754633  0.37275144    -0.75510
O1221       O  0.58583231  0.27491283  0.46582855    -0.75360
O1222       O  0.54026779  0.27866157  0.40824532    -0.81030
O1223       O  0.59974523  0.21703957  0.46482600    -0.79230
O1224       O  0.60661878  0.24913742  0.39938738    -1.15360
O1225       O  0.63591214  0.18199307  0.41432335    -0.74560
C1226       C  0.66775002  0.19082181  0.40569464     0.96160
C1227       C  0.59756716  0.30927803  0.34078368     0.92560
Al1228     Al  0.58914987  0.29143836  0.41757487     1.55560
O1229       O  0.62414873  0.21002895  0.33844929    -0.79180
C1230       C  0.59288303  0.24576532  0.48204391     0.96720
C1231       C  0.66283500  0.31230522  0.40836159     0.91600
O1232       O  0.66445250  0.29047721  0.38237743    -0.84500
O1233       O  0.67502898  0.38784729  0.28074535    -0.83960
C1234       C  0.52541224  0.40889846  0.24865834     0.95400
O1235       O  0.54209502  0.41535127  0.27770438    -0.73070
O1236       O  0.57911446  0.36514747  0.31317152    -0.76670
Al1237     Al  0.59090380  0.41205455  0.29340827     1.48980
C1238       C  0.59931513  0.33748938  0.31295059     0.90650
O1239       O  0.61596313  0.32778040  0.22227509    -0.82890
O1240       O  0.63913156  0.42334310  0.18930185    -0.76450
Al1241     Al  0.64294742  0.36039222  0.25150485     1.90120
O1242       O  0.59246881  0.36655356  0.18386033    -0.75510
O1243       O  0.58877157  0.46100090  0.22267355    -0.75360
O1244       O  0.54239422  0.40286437  0.21958299    -0.81030
O1245       O  0.59996060  0.46133191  0.28106443    -0.79230
O1246       O  0.60855982  0.39481359  0.25102487    -1.15360
O1247       O  0.63602453  0.41198261  0.31858831    -0.74560
C1248       C  0.66795115  0.40270867  0.31066479     0.96160
C1249       C  0.60142697  0.33468593  0.19218065     0.92560
Al1250     Al  0.59203896  0.41186437  0.20812293     1.55560
O1251       O  0.62525175  0.33505009  0.29124852    -0.79180
C1252       C  0.59474985  0.47794387  0.25161674     0.96720
C1253       C  0.66678415  0.40322291  0.19000718     0.91600
O1254       O  0.66904149  0.37740869  0.21184817    -0.84500
O1255       O  0.84310466  0.38039630  0.21205564    -0.83960
C1256       C  0.98553150  0.40951596  0.24917684     0.95400
O1257       O  0.96783934  0.40327736  0.22066124    -0.73070
O1258       O  0.91618164  0.36894845  0.18543119    -0.76670
Al1259     Al  0.91859965  0.41444929  0.21011574     1.48980
C1260       C  0.90779867  0.33703194  0.19468647     0.90650
O1261       O  0.88380335  0.33967726  0.29474336    -0.82890
O1262       O  0.87609496  0.41256073  0.32159905    -0.76450
Al1263     Al  0.86772619  0.36413527  0.25348754     1.90120
O1264       O  0.93347588  0.36562392  0.31380788    -0.75510
O1265       O  0.91059851  0.46232050  0.28454128    -0.75360
O1266       O  0.96957655  0.41723375  0.27846049    -0.81030
O1267       O  0.92359919  0.46312637  0.22638155    -0.79230
O1268       O  0.90255031  0.39732486  0.25298461    -1.15360
O1269       O  0.87119114  0.42813721  0.19146772    -0.74560
C1270       C  0.84469175  0.40650715  0.19024345     0.96160
C1271       C  0.91073234  0.34007837  0.31553155     0.92560
Al1272     Al  0.92095514  0.41331616  0.29547374     1.55560
O1273       O  0.89502437  0.33046280  0.22571811    -0.79180
C1274       C  0.91627647  0.47943453  0.25558150     0.96720
C1275       C  0.84384570  0.40572209  0.31257705     0.91600
O1276       O  0.83641002  0.39376100  0.28138050    -0.84500
O1277       O  0.79502930  0.37713532  0.33912513    -0.83960
C1278       C  0.75779174  0.41045995  0.48114785     0.95400
O1279       O  0.78649721  0.40301790  0.46415219    -0.73070
O1280       O  0.82205429  0.36699953  0.41373047    -0.76670
Al1281     Al  0.79777360  0.41268130  0.41488885     1.48980
C1282       C  0.81303419  0.33492927  0.40595947     0.90650
O1283       O  0.71313792  0.33805834  0.38213210    -0.82890
O1284       O  0.68720132  0.41230033  0.37084917    -0.76450
Al1285     Al  0.75421661  0.36148339  0.36478869     1.90120
O1286       O  0.69250263  0.36691249  0.42956657    -0.75510
O1287       O  0.72509179  0.46257279  0.40572778    -0.75360
O1288       O  0.72887584  0.41811697  0.46466178    -0.81030
O1289       O  0.78309736  0.46192662  0.41896385    -0.79230
O1290       O  0.75484967  0.39596724  0.39873648    -1.15360
O1291       O  0.81589015  0.42471474  0.36767527    -0.74560
C1292       C  0.81606175  0.40373246  0.34067173     0.96160
C1293       C  0.69136865  0.34019209  0.40821424     0.92560
Al1294     Al  0.71255992  0.41364845  0.41617700     1.55560
O1295       O  0.78222968  0.32821040  0.39275266    -0.79180
C1296       C  0.75439222  0.47904552  0.41202964     0.96720
C1297       C  0.69588887  0.40341448  0.33891832     0.91600
O1298       O  0.72648686  0.38982004  0.33220003    -0.84500
O1299       O  0.83497109  0.27607354  0.39266017    -0.83960
C1300       C  0.98455074  0.24805521  0.41454128     0.95400
O1301       O  0.96761825  0.27685989  0.42134517    -0.73070
O1302       O  0.93155898  0.31143976  0.37063841    -0.76670
Al1303     Al  0.91873633  0.29149827  0.41755236     1.48980
C1304       C  0.91075944  0.31161592  0.34354037     0.90650
O1305       O  0.89837276  0.21997265  0.33401800    -0.82890
O1306       O  0.87196600  0.18606636  0.42984993    -0.76450
Al1307     Al  0.86906102  0.24806300  0.36570247     1.90120
O1308       O  0.91972944  0.18054338  0.37310159    -0.75510
O1309       O  0.92157329  0.22120605  0.46717070    -0.75360
O1310       O  0.96819034  0.21846705  0.40949922    -0.81030
O1311       O  0.90882428  0.27932806  0.46679561    -0.79230
O1312       O  0.90234267  0.24850135  0.40065740    -1.15360
O1313       O  0.87283953  0.31545635  0.41617352    -0.74560
C1314       C  0.84117501  0.30667680  0.40660590     0.96160
C1315       C  0.91158025  0.18917261  0.34108537     0.92560
Al1316     Al  0.91916661  0.20585173  0.41837272     1.55560
O1317       O  0.88543276  0.28908650  0.34130526    -0.79180
C1318       C  0.91430000  0.25008978  0.48372436     0.96720
C1319       C  0.84584114  0.18546201  0.40781341     0.91600
O1320       O  0.84475694  0.20718130  0.38173760    -0.84500
O1321       O  0.66523362  0.28932189  0.62071731    -0.83960
C1322       C  0.52287757  0.25221369  0.59161697     0.95400
O1323       O  0.54056115  0.28075164  0.59782826    -0.73070
O1324       O  0.59222120  0.31608273  0.63205423    -0.76670
Al1325     Al  0.58979199  0.29130133  0.58660661     1.48980
C1326       C  0.60050764  0.30679621  0.66398053     0.90650
O1327       O  0.62439599  0.20672038  0.66152428    -0.82890
O1328       O  0.63222953  0.17978260  0.58863311    -0.76450
Al1329     Al  0.64054677  0.24793297  0.63701531     1.90120
O1330       O  0.57479407  0.18760435  0.63549840    -0.75510
O1331       O  0.59782098  0.21683453  0.53880473    -0.75360
O1332       O  0.53882114  0.22295065  0.58381620    -0.81030
O1333       O  0.58474921  0.27498569  0.53797149    -0.79230
O1334       O  0.60579937  0.24842404  0.60377366    -1.15360
O1335       O  0.63725074  0.30989117  0.57290581    -0.74560
C1336       C  0.66374059  0.31108463  0.59455790     0.96160
C1337       C  0.59746606  0.18593055  0.66111157     0.92560
Al1338     Al  0.58740109  0.20592309  0.58779913     1.55560
O1339       O  0.61318472  0.27573328  0.67056587    -0.79180
C1340       C  0.59207855  0.24577724  0.52168179     0.96720
C1341       C  0.66446490  0.18878569  0.59554388     0.91600
O1342       O  0.67190088  0.21998385  0.60750445    -0.84500
O1343       O  0.83334630  0.22085278  0.61300999    -0.83960
C1344       C  0.98301487  0.25266933  0.59238573     0.95400
O1345       O  0.96632600  0.22369460  0.58553940    -0.73070
O1346       O  0.92963546  0.18830011  0.63625125    -0.76670
Al1347     Al  0.91753759  0.20784888  0.58928047     1.48980
C1348       C  0.90910307  0.18819447  0.66368711     0.90650
O1349       O  0.89271101  0.27859534  0.67362519    -0.82890
O1350       O  0.86943879  0.31169395  0.57766474    -0.76450
Al1351     Al  0.86551002  0.24971871  0.64081763     1.90120
O1352       O  0.91567092  0.31735526  0.63485573    -0.75510
O1353       O  0.92017922  0.27839813  0.54043460    -0.75360
O1354       O  0.96603721  0.28162821  0.59895862    -0.81030
O1355       O  0.90803470  0.22016888  0.54008413    -0.79230
O1356       O  0.89993251  0.25019429  0.60650935    -1.15360
O1357       O  0.87243911  0.18255717  0.58973917    -0.74560
C1358       C  0.84044285  0.19070101  0.59861629     0.96160
C1359       C  0.90694937  0.30885623  0.66675387     0.92560
Al1360     Al  0.91649969  0.29305232  0.58953796     1.55560
O1361       O  0.88291643  0.20964214  0.66591116    -0.79180
C1362       C  0.91367754  0.24955601  0.52348494     0.96720
C1363       C  0.84189370  0.31127742  0.59793948     0.91600
O1364       O  0.83971241  0.28969480  0.62399268    -0.84500
O1365       O  0.72574873  0.39203177  0.66924296    -0.83960
C1366       C  0.75756968  0.41118263  0.52080927     0.95400
O1367       O  0.72813786  0.41789338  0.53682302    -0.73070
O1368       O  0.69279376  0.36605156  0.57246761    -0.76670
Al1369     Al  0.71147743  0.41383304  0.58522243     1.48980
C1370       C  0.69186332  0.33976155  0.59443305     0.90650
O1371       O  0.78288083  0.33196355  0.60877712    -0.82890
O1372       O  0.81573412  0.42869811  0.63527976    -0.76450
Al1373     Al  0.75432546  0.36393895  0.63707875     1.90120
O1374       O  0.82282265  0.37115196  0.58832392    -0.75510
O1375       O  0.78042625  0.46452631  0.58349317    -0.75360
O1376       O  0.78645540  0.40593299  0.53820465    -0.81030
O1377       O  0.72213390  0.46304442  0.59550230    -0.79230
O1378       O  0.75430730  0.39802476  0.60318284    -1.15360
O1379       O  0.68587911  0.41284247  0.63016652    -0.74560
C1380       C  0.69483543  0.40497291  0.66216718     0.96160
C1381       C  0.81385246  0.33910802  0.59603304     0.92560
Al1382     Al  0.79712625  0.41608884  0.58743967     1.55560
O1383       O  0.71349074  0.33883874  0.62064863    -0.79180
C1384       C  0.75096887  0.48049950  0.59024250     0.96720
C1385       C  0.81668677  0.40660787  0.66146869     0.91600
O1386       O  0.79516355  0.38029448  0.66222871    -0.84500
O1387       O  0.79503280  0.11920375  0.66340929    -0.83960
C1388       C  0.75379961  0.08936703  0.52237008     0.95400
O1389       O  0.78310487  0.09574708  0.53881446    -0.73070
O1390       O  0.82106723  0.13055633  0.58909246    -0.76670
Al1391     Al  0.79570528  0.08525689  0.58772741     1.48980
C1392       C  0.81245371  0.16248765  0.59801739     0.90650
O1393       O  0.71332210  0.16233804  0.62412781    -0.82890
O1394       O  0.68623480  0.08754316  0.63444158    -0.76450
Al1395     Al  0.75404484  0.13665055  0.63991642     1.90120
O1396       O  0.69228501  0.13356052  0.57675379    -0.75510
O1397       O  0.72191333  0.03712183  0.59847783    -0.75360
O1398       O  0.72514099  0.08232732  0.53952399    -0.81030
O1399       O  0.77948277  0.03674443  0.58322068    -0.79230
O1400       O  0.75341569  0.10265839  0.60545214    -1.15120
O1401       O  0.81575780  0.07185931  0.63443726    -0.74560
C1402       C  0.81681240  0.09312874  0.66122665     0.96160
C1403       C  0.69221721  0.16067323  0.59759982     0.92560
Al1404     Al  0.71051035  0.08639052  0.58878498     1.55560
O1405       O  0.78188912  0.16923832  0.61166221    -0.79180
C1406       C  0.75064716  0.02018101  0.59096598     0.96720
C1407       C  0.69517521  0.09549868  0.66647743     0.91600
O1408       O  0.72593218  0.10880320  0.67318739    -0.84500
O1409       O  0.79573221  0.15948110  0.88142453    -0.83960
C1410       C  0.75505557  0.01883463  0.91269589     0.95400
O1411       O  0.78427098  0.03548518  0.90643589    -0.73070
O1412       O  0.82112437  0.08581054  0.87062135    -0.76670
Al1413     Al  0.79670253  0.08450192  0.91653272     1.48980
C1414       C  0.81216475  0.09447219  0.83868054     0.90650
O1415       O  0.71247989  0.12000981  0.84186686    -0.82890
O1416       O  0.68707541  0.13080594  0.91554587    -0.76450
Al1417     Al  0.75410747  0.13584367  0.86554644     1.90120
O1418       O  0.69186469  0.07217693  0.87001384    -0.75510
O1419       O  0.72387613  0.09497083  0.96592241    -0.75360
O1420       O  0.72645385  0.03572047  0.92069284    -0.81030
O1421       O  0.78168161  0.08068022  0.96568215    -0.79230
O1422       O  0.75408476  0.10165774  0.89973609    -1.15360
O1423       O  0.81628457  0.13132833  0.92927618    -0.74560
C1424       C  0.81740490  0.15769524  0.90757812     0.96160
C1425       C  0.69077336  0.09388146  0.84364227     0.92560
Al1426     Al  0.71145251  0.08488603  0.91687050     1.55560
O1427       O  0.78118630  0.10733394  0.83215921    -0.79180
C1428       C  0.75309350  0.08869956  0.98257417     0.96720
C1429       C  0.69604427  0.16274026  0.90686619     0.91600
O1430       O  0.72703111  0.16925924  0.89402340    -0.84500
O1431       O  0.83408271  0.11017434  0.78028087    -0.83960
C1432       C  0.98408794  0.08755500  0.75234991     0.95400
O1433       O  0.96691479  0.08196778  0.78124479    -0.73070
O1434       O  0.92973436  0.13300930  0.81422679    -0.76670
Al1435     Al  0.91791536  0.08577395  0.79550340     1.48980
C1436       C  0.90984822  0.16083464  0.81326365     0.90650
O1437       O  0.89674133  0.16755762  0.72226179    -0.82890
O1438       O  0.87199043  0.07142923  0.68959698    -0.76450
Al1439     Al  0.86790172  0.13654181  0.75116603     1.90120
O1440       O  0.91950987  0.12837387  0.68373328    -0.75510
O1441       O  0.92218401  0.03530297  0.72638174    -0.75360
O1442       O  0.96792350  0.09270588  0.72267665    -0.81030
O1443       O  0.90871989  0.03631692  0.78433381    -0.79230
O1444       O  0.90160078  0.10183939  0.75222556    -1.15360
O1445       O  0.87223576  0.08667245  0.81930140    -0.74560
C1446       C  0.84045677  0.09561499  0.81058296     0.96160
C1447       C  0.91079727  0.16035635  0.69191687     0.92560
Al1448     Al  0.91903085  0.08356861  0.70990086     1.55560
O1449       O  0.88427509  0.16301841  0.79111690    -0.79180
C1450       C  0.91539294  0.01908764  0.75557885     0.96720
C1451       C  0.84532554  0.09291524  0.68911230     0.91600
O1452       O  0.84370825  0.11884280  0.71100201    -0.84500
O1453       O  0.67317239  0.10889460  0.72527872    -0.83960
C1454       C  0.52364486  0.08679616  0.75329301     0.95400
O1455       O  0.54057063  0.08006519  0.72446697    -0.73070
O1456       O  0.57655216  0.13087797  0.68986814    -0.76670
Al1457     Al  0.58943843  0.08394643  0.70979624     1.48980
C1458       C  0.59737169  0.15796893  0.68965007     0.90650
O1459       O  0.60964932  0.16743806  0.78132444    -0.82890
O1460       O  0.63626815  0.07157740  0.81517311    -0.76450
Al1461     Al  0.63904470  0.13582188  0.75326443     1.90120
O1462       O  0.58845022  0.12828720  0.82078235    -0.75510
O1463       O  0.58669006  0.03422976  0.78001997    -0.75360
O1464       O  0.54001182  0.09185176  0.78286878    -0.81030
O1465       O  0.59944188  0.03470019  0.72191007    -0.79230
O1466       O  0.60581716  0.10081928  0.75279879    -1.15360
O1467       O  0.63533057  0.08539421  0.68585645    -0.74560
C1468       C  0.66699247  0.09493119  0.69467866     0.96160
C1469       C  0.59652716  0.16032650  0.81214687     0.92560
Al1470     Al  0.58904461  0.08302728  0.79543284     1.55560
O1471       O  0.62267937  0.16021882  0.71220318    -0.79180
C1472       C  0.59401650  0.01771910  0.75112424     0.96720
C1473       C  0.66233786  0.09367902  0.81585659     0.91600
O1474       O  0.66336687  0.11981566  0.79419442    -0.84500
O1475       O  0.67418602  0.22124313  0.89141013    -0.83960
C1476       C  0.52411090  0.24902886  0.91369302     0.95400
O1477       O  0.54130870  0.22019381  0.91951351    -0.73070
O1478       O  0.57825824  0.18736957  0.86818161    -0.76670
Al1479     Al  0.59028480  0.20589074  0.91543685     1.48980
C1480       C  0.59834233  0.18812046  0.84048898     0.90650
O1481       O  0.61152648  0.27887213  0.83362464    -0.82890
O1482       O  0.63618637  0.31171681  0.92987289    -0.76450
Al1483     Al  0.64039234  0.25015644  0.86478911     1.90120
O1484       O  0.58887344  0.31754623  0.87275143    -0.75510
O1485       O  0.58583226  0.27491280  0.96582856    -0.75360
O1486       O  0.54026777  0.27866152  0.90824532    -0.81030
O1487       O  0.59974515  0.21703953  0.96482603    -0.79230
O1488       O  0.60661879  0.24913737  0.89938742    -1.15360
O1489       O  0.63591210  0.18199299  0.91432342    -0.74560
C1490       C  0.66775000  0.19082174  0.90569478     0.96160
C1491       C  0.59756726  0.30927794  0.84078369     0.92560
Al1492     Al  0.58914986  0.29143831  0.91757487     1.55560
O1493       O  0.62414884  0.21002886  0.83844938    -0.79180
C1494       C  0.59288294  0.24576529  0.98204392     0.96720
C1495       C  0.66283500  0.31230519  0.90836166     0.91600
O1496       O  0.66445255  0.29047714  0.88237753    -0.84500
O1497       O  0.67502901  0.38784714  0.78074548    -0.83960
C1498       C  0.52541228  0.40889845  0.74865843     0.95400
O1499       O  0.54209506  0.41535107  0.77770451    -0.73070
O1500       O  0.57911466  0.36514746  0.81317167    -0.76670
Al1501     Al  0.59090386  0.41205452  0.79340833     1.48980
C1502       C  0.59931522  0.33748930  0.81295060     0.90650
O1503       O  0.61596327  0.32778044  0.72227500    -0.82890
O1504       O  0.63913161  0.42334298  0.68930177    -0.76450
Al1505     Al  0.64294748  0.36039218  0.75150486     1.90120
O1506       O  0.59246870  0.36655357  0.68386037    -0.75510
O1507       O  0.58877180  0.46100091  0.72267353    -0.75360
O1508       O  0.54239426  0.40286457  0.71958304    -0.81030
O1509       O  0.59996046  0.46133192  0.78106448    -0.79230
O1510       O  0.60855989  0.39481358  0.75102490    -1.15360
O1511       O  0.63602460  0.41198275  0.81858830    -0.74560
C1512       C  0.66795120  0.40270867  0.81066485     0.96160
C1513       C  0.60142696  0.33468596  0.69218063     0.92560
Al1514     Al  0.59203902  0.41186438  0.70812295     1.55560
O1515       O  0.62525175  0.33504994  0.79124843    -0.79180
C1516       C  0.59474988  0.47794388  0.75161677     0.96720
C1517       C  0.66678426  0.40322287  0.69000720     0.91600
O1518       O  0.66904164  0.37740874  0.71184829    -0.84500
O1519       O  0.84310472  0.38039626  0.71205563    -0.83960
C1520       C  0.98553155  0.40951595  0.74917683     0.95400
O1521       O  0.96783939  0.40327734  0.72066123    -0.73070
O1522       O  0.91618171  0.36894843  0.68543115    -0.76670
Al1523     Al  0.91859970  0.41444926  0.71011573     1.48980
C1524       C  0.90779874  0.33703191  0.69468642     0.90650
O1525       O  0.88380344  0.33967718  0.79474334    -0.82890
O1526       O  0.87609499  0.41256070  0.82159906    -0.76450
Al1527     Al  0.86772626  0.36413521  0.75348753     1.90120
O1528       O  0.93347592  0.36562391  0.81380793    -0.75510
O1529       O  0.91059853  0.46232047  0.78454128    -0.75360
O1530       O  0.96957659  0.41723373  0.77846049    -0.81030
O1531       O  0.92359923  0.46312636  0.72638156    -0.79230
O1532       O  0.90255036  0.39732482  0.75298461    -1.15360
O1533       O  0.87119120  0.42813717  0.69146772    -0.74560
C1534       C  0.84469181  0.40650710  0.69024344     0.96160
C1535       C  0.91073238  0.34007834  0.81553159     0.92560
Al1536     Al  0.92095517  0.41331613  0.79547375     1.55560
O1537       O  0.89502445  0.33046275  0.72571805    -0.79180
C1538       C  0.91627650  0.47943450  0.75558150     0.96720
C1539       C  0.84384573  0.40572201  0.81257707     0.91600
O1540       O  0.83641007  0.39376088  0.78138054    -0.84500
O1541       O  0.79502932  0.37713528  0.83912519    -0.83960
C1542       C  0.75779173  0.41045997  0.98114789     0.95400
O1543       O  0.78649721  0.40301796  0.96415224    -0.73070
O1544       O  0.82205427  0.36699954  0.91373056    -0.76670
Al1545     Al  0.79777360  0.41268131  0.91488890     1.48980
C1546       C  0.81303416  0.33492928  0.90595957     0.90650
O1547       O  0.71313791  0.33805835  0.88213216    -0.82890
O1548       O  0.68720134  0.41230036  0.87084922    -0.76450
Al1549     Al  0.75421661  0.36148339  0.86478876     1.90120
O1550       O  0.69250260  0.36691250  0.92956661    -0.75510
O1551       O  0.72509180  0.46257280  0.90572786    -0.75360
O1552       O  0.72887582  0.41811696  0.96466183    -0.81030
O1553       O  0.78309739  0.46192663  0.91896386    -0.79230
O1554       O  0.75484968  0.39596724  0.89873654    -1.15360
O1555       O  0.81589018  0.42471471  0.86767530    -0.74560
C1556       C  0.81606179  0.40373241  0.84067177     0.96160
C1557       C  0.69136863  0.34019209  0.90821429     0.92560
Al1558     Al  0.71255992  0.41364846  0.91617706     1.55560
O1559       O  0.78222966  0.32821040  0.89275275    -0.79180
C1560       C  0.75439223  0.47904553  0.91202970     0.96720
C1561       C  0.69588891  0.40341450  0.83891838     0.91600
O1562       O  0.72648688  0.38982005  0.83220010    -0.84500
O1563       O  0.83497106  0.27607355  0.89266028    -0.83960
C1564       C  0.98455069  0.24805524  0.91454136     0.95400
O1565       O  0.96761821  0.27685992  0.92134528    -0.73070
O1566       O  0.93155895  0.31143979  0.87063851    -0.76670
Al1567     Al  0.91873628  0.29149829  0.91755247     1.48980
C1568       C  0.91075943  0.31161593  0.84354047     0.90650
O1569       O  0.89837272  0.21997269  0.83401810    -0.82890
O1570       O  0.87196595  0.18606638  0.92985002    -0.76450
Al1571     Al  0.86906098  0.24806303  0.86570257     1.90120
O1572       O  0.91972939  0.18054341  0.87310168    -0.75510
O1573       O  0.92157322  0.22120606  0.96717080    -0.75360
O1574       O  0.96819028  0.21846707  0.90949932    -0.81030
O1575       O  0.90882423  0.27932807  0.96679571    -0.79230
O1576       O  0.90234263  0.24850137  0.90065750    -1.15360
O1577       O  0.87283949  0.31545636  0.91617363    -0.74560
C1578       C  0.84117498  0.30667681  0.90660601     0.96160
C1579       C  0.91158021  0.18917265  0.84108546     0.92560
Al1580     Al  0.91916656  0.20585176  0.91837282     1.55560
O1581       O  0.88543272  0.28908653  0.84130537    -0.79180
C1582       C  0.91429991  0.25008979  0.98372446     0.96720
C1583       C  0.84584109  0.18546202  0.90781350     0.91600
O1584       O  0.84475690  0.20718131  0.88173769    -0.84500
O1585       O  0.66523359  0.78932183  0.12071719    -0.83960
C1586       C  0.52287746  0.75221363  0.09161698     0.95400
O1587       O  0.54056105  0.78075159  0.09782822    -0.73070
O1588       O  0.59222108  0.81608269  0.13205421    -0.76670
Al1589     Al  0.58979190  0.79130130  0.08660658     1.48980
C1590       C  0.60050760  0.80679619  0.16398050     0.90650
O1591       O  0.62439596  0.70672038  0.16152422    -0.82890
O1592       O  0.63222944  0.67978252  0.08863306    -0.76450
Al1593     Al  0.64054674  0.74793294  0.13701522     1.90120
O1594       O  0.57479402  0.68760433  0.13549838    -0.75510
O1595       O  0.59782083  0.71683447  0.03880471    -0.75360
O1596       O  0.53882104  0.72295059  0.08381622    -0.81030
O1597       O  0.58474915  0.77498565  0.03797146    -0.79230
O1598       O  0.60579930  0.74842401  0.10377361    -1.15360
O1599       O  0.63725064  0.80989122  0.07290579    -0.74560
C1600       C  0.66374052  0.81108463  0.09455784     0.96160
C1601       C  0.59746602  0.68593055  0.16111154     0.92560
Al1602     Al  0.58740100  0.70592304  0.08779911     1.55560
O1603       O  0.61318476  0.77573329  0.17056581    -0.79180
C1604       C  0.59207845  0.74577718  0.02168177     0.96720
C1605       C  0.66446482  0.68878561  0.09554381     0.91600
O1606       O  0.67190081  0.71998378  0.10750435    -0.84500
O1607       O  0.83334617  0.72085279  0.11301017    -0.83960
C1608       C  0.98301477  0.75266928  0.09238577     0.95400
O1609       O  0.96632588  0.72369456  0.08553942    -0.73070
O1610       O  0.92963536  0.68830013  0.13625131    -0.76670
Al1611     Al  0.91753745  0.70784887  0.08928055     1.48980
C1612       C  0.90910301  0.68819448  0.16368719     0.90650
O1613       O  0.89271098  0.77859534  0.17362529    -0.82890
O1614       O  0.86943871  0.81169392  0.07766483    -0.76450
Al1615     Al  0.86550994  0.74971872  0.14081777     1.90120
O1616       O  0.91567084  0.81735525  0.13485579    -0.75510
O1617       O  0.92017914  0.77839808  0.04043469    -0.75360
O1618       O  0.96603712  0.78162816  0.09895872    -0.81030
O1619       O  0.90803450  0.72016886  0.04008423    -0.79230
O1620       O  0.89993240  0.75019429  0.10650945    -1.15360
O1621       O  0.87243898  0.68255720  0.08973931    -0.74560
C1622       C  0.84044272  0.69070103  0.09861644     0.96160
C1623       C  0.90694932  0.80885624  0.16675394     0.92560
Al1624     Al  0.91649960  0.79305229  0.08953805     1.55560
O1625       O  0.88291636  0.70964214  0.16591129    -0.79180
C1626       C  0.91367742  0.74955597  0.02348503     0.96720
C1627       C  0.84189362  0.81127743  0.09793959     0.91600
O1628       O  0.83971235  0.78969484  0.12399282    -0.84500
O1629       O  0.72574868  0.89203176  0.16924300    -0.83960
C1630       C  0.75756965  0.91118264  0.02080934     0.95400
O1631       O  0.72813784  0.91789346  0.03682309    -0.73070
O1632       O  0.69279371  0.86605161  0.07246762    -0.76670
Al1633     Al  0.71147738  0.91383308  0.08522249     1.48980
C1634       C  0.69186324  0.83976158  0.09443304     0.90650
O1635       O  0.78288074  0.83196356  0.10877714    -0.82890
O1636       O  0.81573402  0.92869815  0.13527983    -0.76450
Al1637     Al  0.75432539  0.86393895  0.13707878     1.90120
O1638       O  0.82282261  0.87115198  0.08832404    -0.75510
O1639       O  0.78042619  0.96452634  0.08349320    -0.75360
O1640       O  0.78645536  0.90593296  0.03820474    -0.81030
O1641       O  0.72213386  0.96304445  0.09550242    -0.79230
O1642       O  0.75430724  0.89802477  0.10318289    -1.15360
O1643       O  0.68587905  0.91284247  0.13016656    -0.74560
C1644       C  0.69483538  0.90497291  0.16216722     0.96160
C1645       C  0.81385239  0.83910803  0.09603312     0.92560
Al1646     Al  0.79712619  0.91608886  0.08743974     1.55560
O1647       O  0.71349065  0.83883876  0.12064863    -0.79180
C1648       C  0.75096883  0.98049953  0.09024258     0.96720
C1649       C  0.81668669  0.90660789  0.16146874     0.91600
O1650       O  0.79516350  0.88029447  0.16222874    -0.84500
O1651       O  0.79503286  0.61920377  0.16340920    -0.83960
C1652       C  0.75379959  0.58936702  0.02237012     0.95400
O1653       O  0.78310482  0.59574727  0.03881449    -0.73070
O1654       O  0.82106718  0.63055635  0.08909260    -0.76670
Al1655     Al  0.79570522  0.58525691  0.08772739     1.48980
C1656       C  0.81245359  0.66248768  0.09801746     0.90650
O1657       O  0.71332193  0.66233791  0.12412787    -0.82890
O1658       O  0.68623476  0.58754327  0.13444160    -0.76450
Al1659     Al  0.75404479  0.63665051  0.13991642     1.90120
O1660       O  0.69228506  0.63356049  0.07675369    -0.75510
O1661       O  0.72191333  0.53712184  0.09847803    -0.75360
O1662       O  0.72514102  0.58232712  0.03952403    -0.81030
O1663       O  0.77948268  0.53674446  0.08322050    -0.79230
O1664       O  0.75341565  0.60265837  0.10545214    -1.15120
O1665       O  0.81575769  0.57185920  0.13443724    -0.74560
C1666       C  0.81681240  0.59312870  0.16122658     0.96160
C1667       C  0.69221713  0.66067315  0.09759980     0.92560
Al1668     Al  0.71051033  0.58639048  0.08878501     1.55560
O1669       O  0.78188894  0.66923834  0.11166215    -0.79180
C1670       C  0.75064712  0.52018103  0.09096599     0.96720
C1671       C  0.69517523  0.59549869  0.16647746     0.91600
O1672       O  0.72593226  0.60880307  0.17318742    -0.84500
O1673       O  0.79573224  0.65948110  0.38142442    -0.83960
C1674       C  0.75505556  0.51883465  0.41269575     0.95400
O1675       O  0.78427096  0.53548519  0.40643569    -0.73070
O1676       O  0.82112436  0.58581056  0.37062120    -0.76670
Al1677     Al  0.79670254  0.58450191  0.41653257     1.48980
C1678       C  0.81216474  0.59447220  0.33868039     0.90650
O1679       O  0.71247988  0.62000986  0.34186677    -0.82890
O1680       O  0.68707545  0.63080597  0.41554576    -0.76450
Al1681     Al  0.75410749  0.63584371  0.36554633     1.90120
O1682       O  0.69186470  0.57217696  0.37001374    -0.75510
O1683       O  0.72387618  0.59497088  0.46592230    -0.75360
O1684       O  0.72645385  0.53572049  0.42069275    -0.81030
O1685       O  0.78168163  0.58068016  0.46568201    -0.79230
O1686       O  0.75408478  0.60165776  0.39973597    -1.15360
O1687       O  0.81628459  0.63132830  0.42927606    -0.74560
C1688       C  0.81740493  0.65769522  0.40757801     0.96160
C1689       C  0.69077335  0.59388151  0.34364219     0.92560
Al1690     Al  0.71145254  0.58488606  0.41687039     1.55560
O1691       O  0.78118630  0.60733397  0.33215907    -0.79180
C1692       C  0.75309355  0.58869955  0.48257405     0.96720
C1693       C  0.69604431  0.66274030  0.40686609     0.91600
O1694       O  0.72703115  0.66925927  0.39402331    -0.84500
O1695       O  0.83408267  0.61017412  0.28028063    -0.83960
C1696       C  0.98408794  0.58755494  0.25234979     0.95400
O1697       O  0.96691478  0.58196757  0.28124463    -0.73070
O1698       O  0.92973452  0.63300931  0.31422654    -0.76670
Al1699     Al  0.91791537  0.58577392  0.29550329     1.48980
C1700       C  0.90984823  0.66083455  0.31326355     0.90650
O1701       O  0.89674144  0.66755759  0.22226188    -0.82890
O1702       O  0.87199039  0.57142908  0.18959698    -0.76450
Al1703     Al  0.86790172  0.63654172  0.25116595     1.90120
O1704       O  0.91950973  0.62837383  0.18373321    -0.75510
O1705       O  0.92218414  0.53530295  0.22638173    -0.75360
O1706       O  0.96792349  0.59270597  0.22267655    -0.81030
O1707       O  0.90871972  0.53631692  0.28433374    -0.79230
O1708       O  0.90160078  0.60183933  0.25222547    -1.15360
O1709       O  0.87223578  0.58667260  0.31930133    -0.74560
C1710       C  0.84045676  0.59561496  0.31058282     0.96160
C1711       C  0.91079725  0.66035633  0.19191690     0.92560
Al1712     Al  0.91903085  0.58356858  0.20990079     1.55560
O1713       O  0.88427496  0.66301823  0.29111695    -0.79180
C1714       C  0.91539292  0.51908764  0.25557882     0.96720
C1715       C  0.84532557  0.59291520  0.18911220     0.91600
O1716       O  0.84370837  0.61884283  0.21100182    -0.84500
O1717       O  0.67317239  0.60889473  0.22527871    -0.83960
C1718       C  0.52364486  0.58679613  0.25329292     0.95400
O1719       O  0.54057065  0.58006517  0.22446689    -0.73070
O1720       O  0.57655216  0.63087797  0.18986809    -0.76670
Al1721     Al  0.58943845  0.58394645  0.20979620     1.48980
C1722       C  0.59737166  0.65796895  0.18965004     0.90650
O1723       O  0.60964920  0.66743809  0.28132441    -0.82890
O1724       O  0.63626815  0.57157743  0.31517305    -0.76450
Al1725     Al  0.63904464  0.63582196  0.25326441     1.90120
O1726       O  0.58845018  0.62828720  0.32078233    -0.75510
O1727       O  0.58669007  0.53422977  0.28001991    -0.75360
O1728       O  0.54001180  0.59185174  0.28286870    -0.81030
O1729       O  0.59944193  0.53470021  0.22191002    -0.79230
O1730       O  0.60581715  0.60081931  0.25279875    -1.15360
O1731       O  0.63533060  0.58539425  0.18585647    -0.74560
C1732       C  0.66699249  0.59493126  0.19467868     0.96160
C1733       C  0.59652709  0.66032651  0.31214685     0.92560
Al1734     Al  0.58904460  0.58302729  0.29543279     1.55560
O1735       O  0.62267931  0.66021888  0.21220317    -0.79180
C1736       C  0.59401652  0.51771911  0.25112418     0.96720
C1737       C  0.66233783  0.59367909  0.31585654     0.91600
O1738       O  0.66336680  0.61981576  0.29419441    -0.84500
O1739       O  0.67418603  0.72124316  0.39141004    -0.83960
C1740       C  0.52411095  0.74902885  0.41369301     0.95400
O1741       O  0.54130875  0.72019381  0.41951355    -0.73070
O1742       O  0.57825824  0.68736956  0.36818163    -0.76670
Al1743     Al  0.59028485  0.70589074  0.41543686     1.48980
C1744       C  0.59834229  0.68812046  0.34048897     0.90650
O1745       O  0.61152638  0.77887213  0.33362462    -0.82890
O1746       O  0.63618641  0.81171678  0.42987289    -0.76450
Al1747     Al  0.64039231  0.75015646  0.36478906     1.90120
O1748       O  0.58887346  0.81754626  0.37275146    -0.75510
O1749       O  0.58583229  0.77491278  0.46582857    -0.75360
O1750       O  0.54026781  0.77866151  0.40824531    -0.81030
O1751       O  0.59974525  0.71703953  0.46482602    -0.79230
O1752       O  0.60661881  0.74913737  0.39938741    -1.15360
O1753       O  0.63591215  0.68199301  0.41432337    -0.74560
C1754       C  0.66775004  0.69082177  0.40569469     0.96160
C1755       C  0.59756721  0.80927796  0.34078370     0.92560
Al1756     Al  0.58914989  0.79143830  0.41757488     1.55560
O1757       O  0.62414879  0.71002887  0.33844934    -0.79180
C1758       C  0.59288303  0.74576527  0.48204392     0.96720
C1759       C  0.66283501  0.81230519  0.40836163     0.91600
O1760       O  0.66445252  0.79047718  0.38237747    -0.84500
O1761       O  0.67502894  0.88784709  0.28074554    -0.83960
C1762       C  0.52541223  0.90889848  0.24865843     0.95400
O1763       O  0.54209500  0.91535106  0.27770451    -0.73070
O1764       O  0.57911464  0.86514751  0.31317173    -0.76670
Al1765     Al  0.59090381  0.91205456  0.29340833     1.48980
C1766       C  0.59931516  0.83748931  0.31295061     0.90650
O1767       O  0.61596325  0.82778044  0.22227495    -0.82890
O1768       O  0.63913154  0.92334294  0.18930175    -0.76450
Al1769     Al  0.64294742  0.86039218  0.25150487     1.90120
O1770       O  0.59246860  0.86655356  0.18386036    -0.75510
O1771       O  0.58877180  0.96100094  0.22267349    -0.75360
O1772       O  0.54239421  0.90286463  0.21958302    -0.81030
O1773       O  0.59996037  0.96133196  0.28106445    -0.79230
O1774       O  0.60855983  0.89481359  0.25102490    -1.15360
O1775       O  0.63602456  0.91198284  0.31858830    -0.74560
C1776       C  0.66795114  0.90270869  0.31066487     0.96160
C1777       C  0.60142690  0.83468595  0.19218060     0.92560
Al1778     Al  0.59203897  0.91186439  0.20812294     1.55560
O1779       O  0.62525163  0.83504992  0.29124839    -0.79180
C1780       C  0.59474985  0.97794392  0.25161673     0.96720
C1781       C  0.66678421  0.90322287  0.19000723     0.91600
O1782       O  0.66904161  0.87740877  0.21184834    -0.84500
O1783       O  0.84310467  0.88039629  0.21205566    -0.83960
C1784       C  0.98553150  0.90951596  0.24917686     0.95400
O1785       O  0.96783934  0.90327737  0.22066125    -0.73070
O1786       O  0.91618166  0.86894845  0.18543119    -0.76670
Al1787     Al  0.91859965  0.91444929  0.21011575     1.48980
C1788       C  0.90779869  0.83703193  0.19468647     0.90650
O1789       O  0.88380338  0.83967724  0.29474336    -0.82890
O1790       O  0.87609496  0.91256074  0.32159907    -0.76450
Al1791     Al  0.86772620  0.86413526  0.25348755     1.90120
O1792       O  0.93347588  0.86562393  0.31380792    -0.75510
O1793       O  0.91059851  0.96232051  0.28454130    -0.75360
O1794       O  0.96957655  0.91723375  0.27846051    -0.81030
O1795       O  0.92359918  0.96312638  0.22638156    -0.79230
O1796       O  0.90255032  0.89732486  0.25298463    -1.15360
O1797       O  0.87119114  0.92813719  0.19146774    -0.74560
C1798       C  0.84469175  0.90650713  0.19024347     0.96160
C1799       C  0.91073236  0.84007836  0.31553157     0.92560
Al1800     Al  0.92095514  0.91331616  0.29547376     1.55560
O1801       O  0.89502439  0.83046279  0.22571810    -0.79180
C1802       C  0.91627646  0.97943454  0.25558151     0.96720
C1803       C  0.84384570  0.90572208  0.31257707     0.91600
O1804       O  0.83641003  0.89376096  0.28138054    -0.84500
O1805       O  0.79502928  0.87713535  0.33912515    -0.83960
C1806       C  0.75779175  0.91045994  0.48114790     0.95400
O1807       O  0.78649723  0.90301793  0.46415224    -0.73070
O1808       O  0.82205428  0.86699952  0.41373051    -0.76670
Al1809     Al  0.79777360  0.91268131  0.41488889     1.48980
C1810       C  0.81303418  0.83492927  0.40595948     0.90650
O1811       O  0.71313790  0.83805837  0.38213212    -0.82890
O1812       O  0.68720130  0.91230038  0.37084925    -0.76450
Al1813     Al  0.75421659  0.86148342  0.36478872     1.90120
O1814       O  0.69250262  0.86691248  0.42956661    -0.75510
O1815       O  0.72509178  0.96257281  0.40572790    -0.75360
O1816       O  0.72887584  0.91811693  0.46466185    -0.81030
O1817       O  0.78309737  0.96192664  0.41896388    -0.79230
O1818       O  0.75484967  0.89596725  0.39873653    -1.15360
O1819       O  0.81589016  0.92471474  0.36767530    -0.74560
C1820       C  0.81606175  0.90373247  0.34067176     0.96160
C1821       C  0.69136864  0.84019209  0.40821427     0.92560
Al1822     Al  0.71255991  0.91364845  0.41617708     1.55560
O1823       O  0.78222967  0.82821041  0.39275266    -0.79180
C1824       C  0.75439221  0.97904554  0.41202971     0.96720
C1825       C  0.69588886  0.90341454  0.33891839     0.91600
O1826       O  0.72648684  0.88982011  0.33220010    -0.84500
O1827       O  0.83497109  0.77607354  0.39266013    -0.83960
C1828       C  0.98455073  0.74805519  0.41454128     0.95400
O1829       O  0.96761823  0.77685987  0.42134519    -0.73070
O1830       O  0.93155897  0.81143976  0.37063844    -0.76670
Al1831     Al  0.91873631  0.79149824  0.41755237     1.48980
C1832       C  0.91075946  0.81161590  0.34354038     0.90650
O1833       O  0.89837275  0.71997261  0.33401799    -0.82890
O1834       O  0.87196601  0.68606632  0.42984990    -0.76450
Al1835     Al  0.86906102  0.74806298  0.36570246     1.90120
O1836       O  0.91972944  0.68054335  0.37310157    -0.75510
O1837       O  0.92157328  0.72120601  0.46717069    -0.75360
O1838       O  0.96819033  0.71846703  0.40949920    -0.81030
O1839       O  0.90882425  0.77932801  0.46679561    -0.79230
O1840       O  0.90234267  0.74850132  0.40065739    -1.15360
O1841       O  0.87283951  0.81545632  0.41617354    -0.74560
C1842       C  0.84117500  0.80667679  0.40660589     0.96160
C1843       C  0.91158024  0.68917258  0.34108535     0.92560
Al1844     Al  0.91916661  0.70585170  0.41837270     1.55560
O1845       O  0.88543278  0.78908647  0.34130525    -0.79180
C1846       C  0.91429998  0.75008973  0.48372436     0.96720
C1847       C  0.84584113  0.68546199  0.40781340     0.91600
O1848       O  0.84475693  0.70718129  0.38173760    -0.84500
O1849       O  0.66523365  0.78932184  0.62071728    -0.83960
C1850       C  0.52287758  0.75221364  0.59161699     0.95400
O1851       O  0.54056116  0.78075159  0.59782831    -0.73070
O1852       O  0.59222122  0.81608268  0.63205427    -0.76670
Al1853     Al  0.58979200  0.79130129  0.58660664     1.48980
C1854       C  0.60050770  0.80679617  0.66398056     0.90650
O1855       O  0.62439603  0.70672035  0.66152426    -0.82890
O1856       O  0.63222954  0.67978254  0.58863312    -0.76450
Al1857     Al  0.64054681  0.74793293  0.63701529     1.90120
O1858       O  0.57479408  0.68760434  0.63549839    -0.75510
O1859       O  0.59782101  0.71683449  0.53880474    -0.75360
O1860       O  0.53882116  0.72295061  0.58381618    -0.81030
O1861       O  0.58474919  0.77498565  0.53797151    -0.79230
O1862       O  0.60579939  0.74842400  0.60377367    -1.15360
O1863       O  0.63725073  0.80989115  0.57290582    -0.74560
C1864       C  0.66374060  0.81108460  0.59455789     0.96160
C1865       C  0.59746607  0.68593054  0.66111156     0.92560
Al1866     Al  0.58740111  0.70592305  0.58779913     1.55560
O1867       O  0.61318480  0.77573324  0.67056589    -0.79180
C1868       C  0.59207856  0.74577720  0.52168181     0.96720
C1869       C  0.66446492  0.68878564  0.59554386     0.91600
O1870       O  0.67190090  0.71998380  0.60750441    -0.84500
O1871       O  0.83334630  0.72085272  0.61301011    -0.83960
C1872       C  0.98301486  0.75266928  0.59238573     0.95400
O1873       O  0.96632599  0.72369454  0.58553943    -0.73070
O1874       O  0.92963543  0.68830005  0.63625125    -0.76670
Al1875     Al  0.91753757  0.70784884  0.58928049     1.48980
C1876       C  0.90910309  0.68819444  0.66368715     0.90650
O1877       O  0.89271104  0.77859533  0.67362522    -0.82890
O1878       O  0.86943877  0.81169392  0.57766480    -0.76450
Al1879     Al  0.86551003  0.74971868  0.64081770     1.90120
O1880       O  0.91567095  0.81735523  0.63485574    -0.75510
O1881       O  0.92017916  0.77839809  0.54043461    -0.75360
O1882       O  0.96603720  0.78162817  0.59895859    -0.81030
O1883       O  0.90803470  0.72016883  0.54008415    -0.79230
O1884       O  0.89993250  0.75019426  0.60650938    -1.15360
O1885       O  0.87243910  0.68255716  0.58973917    -0.74560
C1886       C  0.84044284  0.69070098  0.59861634     0.96160
C1887       C  0.90694940  0.80885622  0.66675388     0.92560
Al1888     Al  0.91649967  0.79305229  0.58953797     1.55560
O1889       O  0.88291647  0.70964214  0.66591123    -0.79180
C1890       C  0.91367752  0.74955596  0.52348495     0.96720
C1891       C  0.84189367  0.81127739  0.59793954     0.91600
O1892       O  0.83971240  0.78969476  0.62399274    -0.84500
O1893       O  0.72574869  0.89203178  0.66924298    -0.83960
C1894       C  0.75756969  0.91118261  0.52080931     0.95400
O1895       O  0.72813787  0.91789336  0.53682306    -0.73070
O1896       O  0.69279374  0.86605156  0.57246764    -0.76670
Al1897     Al  0.71147741  0.91383304  0.58522246     1.48980
C1898       C  0.69186330  0.83976154  0.59443307     0.90650
O1899       O  0.78288081  0.83196353  0.60877720    -0.82890
O1900       O  0.81573410  0.92869808  0.63527982    -0.76450
Al1901     Al  0.75432543  0.86393895  0.63707880     1.90120
O1902       O  0.82282263  0.87115194  0.58832398    -0.75510
O1903       O  0.78042625  0.96452631  0.58349323    -0.75360
O1904       O  0.78645541  0.90593298  0.53820471    -0.81030
O1905       O  0.72213389  0.96304442  0.59550231    -0.79230
O1906       O  0.75430728  0.89802475  0.60318288    -1.15360
O1907       O  0.68587908  0.91284249  0.63016653    -0.74560
C1908       C  0.69483539  0.90497294  0.66216719     0.96160
C1909       C  0.81385243  0.83910799  0.59603311     0.92560
Al1910     Al  0.79712624  0.91608883  0.58743973     1.55560
O1911       O  0.71349071  0.83883874  0.62064865    -0.79180
C1912       C  0.75096887  0.98049950  0.59024252     0.96720
C1913       C  0.81668673  0.90660785  0.66146875     0.91600
O1914       O  0.79516351  0.88029447  0.66222878    -0.84500
O1915       O  0.79503286  0.61920371  0.66340925    -0.83960
C1916       C  0.75379964  0.58936700  0.52237007     0.95400
O1917       O  0.78310489  0.59574712  0.53881444    -0.73070
O1918       O  0.82106725  0.63055630  0.58909249    -0.76670
Al1919     Al  0.79570530  0.58525686  0.58772738     1.48980
C1920       C  0.81245371  0.66248763  0.59801741     0.90650
O1921       O  0.71332209  0.66233796  0.62412784    -0.82890
O1922       O  0.68623481  0.58754320  0.63444157    -0.76450
Al1923     Al  0.75404487  0.63665050  0.63991642     1.90120
O1924       O  0.69228509  0.63356050  0.57675373    -0.75510
O1925       O  0.72191336  0.53712182  0.59847788    -0.75360
O1926       O  0.72514104  0.58232723  0.53952398    -0.81030
O1927       O  0.77948277  0.53674442  0.58322060    -0.79230
O1928       O  0.75341572  0.60265835  0.60545212    -1.15120
O1929       O  0.81575781  0.57185924  0.63443723    -0.74560
C1930       C  0.81681245  0.59312869  0.66122661     0.96160
C1931       C  0.69221723  0.66067318  0.59759981     0.92560
Al1932     Al  0.71051038  0.58639049  0.58878497     1.55560
O1933       O  0.78188911  0.66923829  0.61166219    -0.79180
C1934       C  0.75064717  0.52018100  0.59096597     0.96720
C1935       C  0.69517525  0.59549867  0.66647743     0.91600
O1936       O  0.72593225  0.60880311  0.67318739    -0.84500
O1937       O  0.79573220  0.65948112  0.88142449    -0.83960
C1938       C  0.75505556  0.51883465  0.91269581     0.95400
O1939       O  0.78427096  0.53548520  0.90643577    -0.73070
O1940       O  0.82112435  0.58581056  0.87062126    -0.76670
Al1941     Al  0.79670252  0.58450192  0.91653264     1.48980
C1942       C  0.81216473  0.59447222  0.83868045     0.90650
O1943       O  0.71247987  0.62000985  0.84186683    -0.82890
O1944       O  0.68707540  0.63080595  0.91554581    -0.76450
Al1945     Al  0.75410746  0.63584371  0.86554639     1.90120
O1946       O  0.69186469  0.57217694  0.87001379    -0.75510
O1947       O  0.72387614  0.59497086  0.96592235    -0.75360
O1948       O  0.72645385  0.53572048  0.92069280    -0.81030
O1949       O  0.78168160  0.58068019  0.96568207    -0.79230
O1950       O  0.75408476  0.60165776  0.89973603    -1.15360
O1951       O  0.81628456  0.63132831  0.92927613    -0.74560
C1952       C  0.81740490  0.65769523  0.90757808     0.96160
C1953       C  0.69077335  0.59388148  0.84364223     0.92560
Al1954     Al  0.71145251  0.58488604  0.91687044     1.55560
O1955       O  0.78118629  0.60733400  0.83215913    -0.79180
C1956       C  0.75309351  0.58869955  0.98257410     0.96720
C1957       C  0.69604426  0.66274027  0.90686615     0.91600
O1958       O  0.72703111  0.66925925  0.89402338    -0.84500
O1959       O  0.83408270  0.61017425  0.78028074    -0.83960
C1960       C  0.98408796  0.58755495  0.75234987     0.95400
O1961       O  0.96691479  0.58196762  0.78124473    -0.73070
O1962       O  0.92973445  0.63300927  0.81422669    -0.76670
Al1963     Al  0.91791536  0.58577391  0.79550335     1.48980
C1964       C  0.90984825  0.66083457  0.81326363     0.90650
O1965       O  0.89674146  0.66755759  0.72226184    -0.82890
O1966       O  0.87199044  0.57142912  0.68959701    -0.76450
Al1967     Al  0.86790177  0.63654177  0.75116599     1.90120
O1968       O  0.91950982  0.62837382  0.68373324    -0.75510
O1969       O  0.92218413  0.53530295  0.72638175    -0.75360
O1970       O  0.96792352  0.59270593  0.72267662    -0.81030
O1971       O  0.90871978  0.53631689  0.78433377    -0.79230
O1972       O  0.90160080  0.60183934  0.75222552    -1.15360
O1973       O  0.87223576  0.58667251  0.81930136    -0.74560
C1974       C  0.84045676  0.59561499  0.81058288     0.96160
C1975       C  0.91079731  0.66035631  0.69191689     0.92560
Al1976     Al  0.91903088  0.58356857  0.70990084     1.55560
O1977       O  0.88427507  0.66301831  0.79111693    -0.79180
C1978       C  0.91539295  0.51908762  0.75557884     0.96720
C1979       C  0.84532560  0.59291520  0.68911225     0.91600
O1980       O  0.84370836  0.61884281  0.71100190    -0.84500
O1981       O  0.67317242  0.60889462  0.72527871    -0.83960
C1982       C  0.52364488  0.58679615  0.75329296     0.95400
O1983       O  0.54057066  0.58006516  0.72446693    -0.73070
O1984       O  0.57655216  0.63087797  0.68986813    -0.76670
Al1985     Al  0.58943846  0.58394644  0.70979621     1.48980
C1986       C  0.59737170  0.65796893  0.68965005     0.90650
O1987       O  0.60964930  0.66743808  0.78132440    -0.82890
O1988       O  0.63626815  0.57157741  0.81517307    -0.76450
Al1989     Al  0.63904470  0.63582191  0.75326440     1.90120
O1990       O  0.58845022  0.62828722  0.82078232    -0.75510
O1991       O  0.58669006  0.53422978  0.78001992    -0.75360
O1992       O  0.54001182  0.59185178  0.78286873    -0.81030
O1993       O  0.59944195  0.53470021  0.72191004    -0.79230
O1994       O  0.60581717  0.60081929  0.75279876    -1.15360
O1995       O  0.63533060  0.58539424  0.68585643    -0.74560
C1996       C  0.66699250  0.59493121  0.69467865     0.96160
C1997       C  0.59652715  0.66032652  0.81214683     0.92560
Al1998     Al  0.58904461  0.58302730  0.79543280     1.55560
O1999       O  0.62267938  0.66021882  0.71220316    -0.79180
C2000       C  0.59401653  0.51771912  0.75112420     0.96720
C2001       C  0.66233785  0.59367905  0.81585655     0.91600
O2002       O  0.66336685  0.61981569  0.79419440    -0.84500
O2003       O  0.67418600  0.72124314  0.89141011    -0.83960
C2004       C  0.52411090  0.74902885  0.91369300     0.95400
O2005       O  0.54130870  0.72019380  0.91951348    -0.73070
O2006       O  0.57825823  0.68736958  0.86818157    -0.76670
Al2007     Al  0.59028479  0.70589074  0.91543681     1.48980
C2008       C  0.59834232  0.68812048  0.84048893     0.90650
O2009       O  0.61152646  0.77887214  0.83362463    -0.82890
O2010       O  0.63618635  0.81171681  0.92987287    -0.76450
Al2011     Al  0.64039233  0.75015645  0.86478909     1.90120
O2012       O  0.58887342  0.81754624  0.87275143    -0.75510
O2013       O  0.58583227  0.77491278  0.96582854    -0.75360
O2014       O  0.54026776  0.77866151  0.90824531    -0.81030
O2015       O  0.59974514  0.71703950  0.96482599    -0.79230
O2016       O  0.60661878  0.74913737  0.89938739    -1.15360
O2017       O  0.63591209  0.68199299  0.91432337    -0.74560
C2018       C  0.66774999  0.69082174  0.90569474     0.96160
C2019       C  0.59756724  0.80927795  0.84078368     0.92560
Al2020     Al  0.58914985  0.79143830  0.91757486     1.55560
O2021       O  0.62414883  0.71002887  0.83844934    -0.79180
C2022       C  0.59288295  0.74576526  0.98204389     0.96720
C2023       C  0.66283499  0.81230519  0.90836165     0.91600
O2024       O  0.66445254  0.79047715  0.88237752    -0.84500
O2025       O  0.67502904  0.88784722  0.78074544    -0.83960
C2026       C  0.52541229  0.90889843  0.74865843     0.95400
O2027       O  0.54209507  0.91535115  0.77770448    -0.73070
O2028       O  0.57911459  0.86514743  0.81317161    -0.76670
Al2029     Al  0.59090386  0.91205451  0.79340834     1.48980
C2030       C  0.59931522  0.83748931  0.81295061     0.90650
O2031       O  0.61596325  0.82778041  0.72227507    -0.82890
O2032       O  0.63913160  0.92334305  0.68930184    -0.76450
Al2033     Al  0.64294749  0.86039219  0.75150488     1.90120
O2034       O  0.59246879  0.86655355  0.68386037    -0.75510
O2035       O  0.58877168  0.96100089  0.72267359    -0.75360
O2036       O  0.54239427  0.90286443  0.71958305    -0.81030
O2037       O  0.59996055  0.96133190  0.78106450    -0.79230
O2038       O  0.60855989  0.89481357  0.75102492    -1.15360
O2039       O  0.63602460  0.91198266  0.81858834    -0.74560
C2040       C  0.66795121  0.90270866  0.81066485     0.96160
C2041       C  0.60142700  0.83468593  0.69218066     0.92560
Al2042     Al  0.59203902  0.91186436  0.70812298     1.55560
O2043       O  0.62525180  0.83505000  0.79124850    -0.79180
C2044       C  0.59474987  0.97794386  0.75161680     0.96720
C2045       C  0.66678423  0.90322290  0.69000722     0.91600
O2046       O  0.66904159  0.87740872  0.71184826    -0.84500
O2047       O  0.84310471  0.88039625  0.71205568    -0.83960
C2048       C  0.98553155  0.90951596  0.74917686     0.95400
O2049       O  0.96783939  0.90327739  0.72066125    -0.73070
O2050       O  0.91618173  0.86894843  0.68543117    -0.76670
Al2051     Al  0.91859969  0.91444927  0.71011575     1.48980
C2052       C  0.90779876  0.83703191  0.69468643     0.90650
O2053       O  0.88380348  0.83967716  0.79474334    -0.82890
O2054       O  0.87609501  0.91256073  0.82159908    -0.76450
Al2055     Al  0.86772627  0.86413519  0.75348756     1.90120
O2056       O  0.93347592  0.86562392  0.81380798    -0.75510
O2057       O  0.91059857  0.96232049  0.78454130    -0.75360
O2058       O  0.96957660  0.91723371  0.77846052    -0.81030
O2059       O  0.92359918  0.96312637  0.72638156    -0.79230
O2060       O  0.90255037  0.89732482  0.75298464    -1.15360
O2061       O  0.87119118  0.92813714  0.69146774    -0.74560
C2062       C  0.84469179  0.90650708  0.69024348     0.96160
C2063       C  0.91073241  0.84007833  0.81553161     0.92560
Al2064     Al  0.92095518  0.91331614  0.79547378     1.55560
O2065       O  0.89502446  0.83046276  0.72571806    -0.79180
C2066       C  0.91627649  0.97943452  0.75558151     0.96720
C2067       C  0.84384575  0.90572201  0.81257711     0.91600
O2068       O  0.83641008  0.89376085  0.78138059    -0.84500
O2069       O  0.79502934  0.87713527  0.83912523    -0.83960
C2070       C  0.75779172  0.91045994  0.98114793     0.95400
O2071       O  0.78649720  0.90301790  0.96415229    -0.73070
O2072       O  0.82205428  0.86699950  0.91373059    -0.76670
Al2073     Al  0.79777361  0.91268127  0.91488895     1.48980
C2074       C  0.81303417  0.83492924  0.90595958     0.90650
O2075       O  0.71313791  0.83805834  0.88213217    -0.82890
O2076       O  0.68720135  0.91230034  0.87084924    -0.76450
Al2077     Al  0.75421662  0.86148337  0.86478878     1.90120
O2078       O  0.69250261  0.86691248  0.92956663    -0.75510
O2079       O  0.72509181  0.96257278  0.90572788    -0.75360
O2080       O  0.72887582  0.91811695  0.96466186    -0.81030
O2081       O  0.78309739  0.96192660  0.91896394    -0.79230
O2082       O  0.75484969  0.89596722  0.89873657    -1.15360
O2083       O  0.81589020  0.92471469  0.86767535    -0.74560
C2084       C  0.81606180  0.90373240  0.84067182     0.96160
C2085       C  0.69136863  0.84019208  0.90821430     0.92560
Al2086     Al  0.71255993  0.91364844  0.91617708     1.55560
O2087       O  0.78222967  0.82821037  0.89275277    -0.79180
C2088       C  0.75439224  0.97904551  0.91202976     0.96720
C2089       C  0.69588892  0.90341448  0.83891839     0.91600
O2090       O  0.72648690  0.88982005  0.83220011    -0.84500
O2091       O  0.83497108  0.77607353  0.89266021    -0.83960
C2092       C  0.98455071  0.74805520  0.91454136     0.95400
O2093       O  0.96761822  0.77685988  0.92134527    -0.73070
O2094       O  0.93155896  0.81143977  0.87063853    -0.76670
Al2095     Al  0.91873629  0.79149824  0.91755246     1.48980
C2096       C  0.91075947  0.81161590  0.84354046     0.90650
O2097       O  0.89837276  0.71997262  0.83401807    -0.82890
O2098       O  0.87196597  0.68606633  0.92984998    -0.76450
Al2099     Al  0.86906101  0.74806299  0.86570254     1.90120
O2100       O  0.91972943  0.68054335  0.87310166    -0.75510
O2101       O  0.92157322  0.72120601  0.96717079    -0.75360
O2102       O  0.96819030  0.71846703  0.90949932    -0.81030
O2103       O  0.90882423  0.77932801  0.96679570    -0.79230
O2104       O  0.90234265  0.74850132  0.90065748    -1.15360
O2105       O  0.87283950  0.81545631  0.91617363    -0.74560
C2106       C  0.84117499  0.80667677  0.90660599     0.96160
C2107       C  0.91158024  0.68917259  0.84108544     0.92560
Al2108     Al  0.91916658  0.70585170  0.91837280     1.55560
O2109       O  0.88543279  0.78908647  0.84130533    -0.79180
C2110       C  0.91429992  0.75008973  0.98372445     0.96720
C2111       C  0.84584111  0.68546200  0.90781347     0.91600
O2112       O  0.84475692  0.70718129  0.88173766    -0.84500
loop_ 
_geom_bond_atom_site_label_1 
_geom_bond_atom_site_label_2 
_geom_bond_distance 
_geom_bond_site_symmetry_2 
_ccdc_geom_bond_type 
O1           C16   1.256       .  A
O1           Al9   1.876       .  S
C2           O12   1.261       .  A
C2            O3   1.259       .  A
C2         C1080   1.470   1_455  S
O3           Al5   1.902       .  S
O4            C6   1.264       .  A
O4           Al5   1.910       .  S
Al5          O13   1.900       .  S
Al5          O15   1.946       .  S
Al5          O14   1.802       .  S
C6           O19   1.260       .  A
C6          C193   1.462       .  S
O7           C17   1.255       .  A
O7           Al9   1.866       .  S
O8           C21   1.260       .  A
O8          Al18   1.913       .  S
Al9          O22   1.891       .  S
Al9          O19   1.896       .  S
Al9          O14   1.774       .  S
O10          C17   1.263       .  A
O10         Al18   1.940       .  S
O11          C20   1.258       .  A
O11         Al18   1.890       .  S
O12         Al18   1.903       .  S
O13          C20   1.262       .  A
O14         Al18   1.806       .  S
O15          C16   1.263       .  A
C16          C50   1.481       .  S
C17         C138   1.473       .  S
C20         C438   1.462   1_554  S
C21          O22   1.262       .  A
C21          C83   1.458       .  S
O23          C38   1.259       .  A
O23         Al31   1.895       .  S
C24          O34   1.260       .  A
C24          O25   1.259       .  A
C24        C1058   1.470       .  S
O25         Al27   1.897       .  S
O26          C28   1.263       .  A
O26         Al27   1.928       .  S
Al27         O35   1.903       .  S
Al27         O37   1.907       .  S
Al27         O36   1.805       .  S
C28          O41   1.250       .  A
C28         C127   1.463       .  S
O29          C39   1.259       .  A
O29         Al31   1.899       .  S
O30          C43   1.261       .  A
O30         Al40   1.917       .  S
Al31         O44   1.860       .  S
Al31         O41   1.858       .  S
Al31         O36   1.791       .  S
O32          C39   1.259       .  A
O32         Al40   1.896       .  S
O33          C42   1.256       .  A
O33         Al40   1.894       .  S
O34         Al40   1.906       .  S
O35          C42   1.262       .  A
O36         Al40   1.806       .  S
O37          C38   1.260       .  A
C38          C72   1.466       .  S
C39         C204   1.463       .  S
C42         C526   1.466   1_554  S
C43          O44   1.250       .  A
C43          C61   1.458       .  S
O45          C60   1.263       .  A
O45         Al53   1.893       .  S
C46          O56   1.259       .  A
C46          O47   1.259       .  A
C46         C486   1.462   1_554  S
O47         Al49   1.893       .  S
O48          C50   1.264       .  A
O48         Al49   1.949       .  S
Al49         O57   1.895       .  S
Al49         O59   1.907       .  S
Al49         O58   1.809       .  S
C50          O63   1.254       .  A
O51          C61   1.262       .  A
O51         Al53   1.893       .  S
O52          C65   1.264       .  A
O52         Al62   1.949       .  S
Al53         O66   1.869       .  S
Al53         O63   1.869       .  S
Al53         O58   1.772       .  S
O54          C61   1.259       .  A
O54         Al62   1.908       .  S
O55          C64   1.260       .  A
O55         Al62   1.894       .  S
O56         Al62   1.895       .  S
O57          C64   1.258       .  A
O58         Al62   1.809       .  S
O59          C60   1.259       .  A
C60         C197   1.458       .  S
C64         C614   1.463       .  S
C65          O66   1.254       .  A
C65         C214   1.481       .  S
O67          C82   1.255       .  A
O67         Al75   1.857       .  S
C68          O78   1.258       .  A
C68          O69   1.262       .  A
C68         C372   1.468   1_554  S
O69         Al71   1.902       .  S
O70          C72   1.262       .  A
O70         Al71   1.915       .  S
Al71         O79   1.893       .  S
Al71         O81   1.939       .  S
Al71         O80   1.807       .  S
C72          O85   1.258       .  A
O73          C83   1.252       .  A
O73         Al75   1.868       .  S
O74          C87   1.261       .  A
O74         Al84   1.906       .  S
Al75         O88   1.906       .  S
Al75         O85   1.893       .  S
Al75         O80   1.784       .  S
O76          C83   1.261       .  A
O76         Al84   1.916       .  S
O77          C86   1.260       .  A
O77         Al84   1.898       .  S
O78         Al84   1.900       .  S
O79          C86   1.259       .  A
O80         Al84   1.801       .  S
O81          C82   1.262       .  A
C82         C131   1.471       .  S
C86         C592   1.463   1_545  S
C87          O88   1.261       .  A
C87         C148   1.470       .  S
O89         C104   1.254       .  A
O89         Al97   1.860       .  S
C90         O100   1.259       .  A
C90          O91   1.261       .  A
C90         C768   1.467   1_545  S
O91         Al93   1.901       .  S
O92          C94   1.264       .  A
O92         Al93   1.917       .  S
Al93        O101   1.900       .  S
Al93        O103   1.930       .  S
Al93        O102   1.804       .  S
C94         O107   1.260       .  A
C94         C126   1.470       .  S
O95         C105   1.254       .  A
O95         Al97   1.861       .  S
O96         C109   1.264       .  A
O96        Al106   1.917       .  S
Al97        O110   1.901       .  S
Al97        O107   1.901       .  S
Al97        O102   1.783       .  S
O98         C105   1.260       .  A
O98        Al106   1.931       .  S
O99         C108   1.262       .  A
O99        Al106   1.903       .  S
O100       Al106   1.900       .  S
O101        C108   1.259       .  A
O102       Al106   1.803       .  S
O103        C104   1.260       .  A
C104        C263   1.466       .  S
C105        C153   1.466       .  S
C108        C332   1.468       .  S
C109        O110   1.260       .  A
C109        C170   1.470       .  S
O111        C126   1.262       .  A
O111       Al119   1.911       .  S
C112        O122   1.261       .  A
C112        O113   1.256       .  A
C112       C1190   1.459       .  S
O113       Al115   1.886       .  S
O114        C116   1.261       .  A
O114       Al115   1.923       .  S
Al115       O123   1.900       .  S
Al115       O125   1.899       .  S
Al115       O124   1.805       .  S
C116        O129   1.250       .  A
C116        C259   1.465       .  S
O117        C127   1.261       .  A
O117       Al119   1.891       .  S
O118        C131   1.262       .  A
O118       Al128   1.942       .  S
Al119       O132   1.848       .  S
Al119       O129   1.868       .  S
Al119       O124   1.783       .  S
O120        C127   1.258       .  A
O120       Al128   1.913       .  S
O121        C130   1.256       .  A
O121       Al128   1.884       .  S
O122       Al128   1.894       .  S
O123        C130   1.260       .  A
O124       Al128   1.816       .  S
O125        C126   1.259       .  A
C130        C746   1.462   1_545  S
C131        O132   1.252       .  A
O133        C148   1.261       .  A
O133       Al141   1.905       .  S
C134        O144   1.261       .  A
C134        O135   1.257       .  A
C134       C1168   1.459   1_455  S
O135       Al137   1.886       .  S
O136        C138   1.260       .  A
O136       Al137   1.939       .  S
Al137       O145   1.905       .  S
Al137       O147   1.909       .  S
Al137       O146   1.807       .  S
C138        O151   1.253       .  A
O139        C149   1.262       .  A
O139       Al141   1.897       .  S
O140        C153   1.261       .  A
O140       Al150   1.934       .  S
Al141       O154   1.852       .  S
Al141       O151   1.862       .  S
Al141       O146   1.780       .  S
O142        C149   1.259       .  A
O142       Al150   1.912       .  S
O143        C152   1.256       .  A
O143       Al150   1.888       .  S
O144       Al150   1.895       .  S
O145        C152   1.262       .  A
O146       Al150   1.812       .  S
O147        C148   1.262       .  A
C149        C160   1.465       .  S
C152        C724   1.467   1_545  S
C153        O154   1.252       .  A
O155        C170   1.262       .  A
O155       Al163   1.911       .  S
C156        O166   1.261       .  A
C156        O157   1.256       .  A
C156       C1300   1.459   1_455  S
O157       Al159   1.887       .  S
O158        C160   1.261       .  A
O158       Al159   1.923       .  S
Al159       O167   1.899       .  S
Al159       O169   1.899       .  S
Al159       O168   1.804       .  S
C160        O173   1.251       .  A
O161        C171   1.261       .  A
O161       Al163   1.891       .  S
O162        C175   1.262       .  A
O162       Al172   1.943       .  S
Al163       O176   1.849       .  S
Al163       O173   1.869       .  S
Al163       O168   1.782       .  S
O164        C171   1.258       .  A
O164       Al172   1.913       .  S
O165        C174   1.257       .  A
O165       Al172   1.884       .  S
O166       Al172   1.895       .  S
O167        C174   1.260       .  A
O168       Al172   1.815       .  S
O169        C170   1.259       .  A
C171        C182   1.463       .  S
C174        C284   1.462       .  S
C175        O176   1.252       .  A
C175        C237   1.471       .  S
O177        C192   1.259       .  A
O177       Al185   1.894       .  S
C178        O188   1.261       .  A
C178        O179   1.258       .  A
C178       C1256   1.471   1_455  S
O179       Al181   1.895       .  S
O180        C182   1.262       .  A
O180       Al181   1.926       .  S
Al181       O189   1.902       .  S
Al181       O191   1.906       .  S
Al181       O190   1.807       .  S
C182        O195   1.250       .  A
O183        C193   1.259       .  A
O183       Al185   1.897       .  S
O184        C197   1.261       .  A
O184       Al194   1.917       .  S
Al185       O198   1.859       .  S
Al185       O195   1.856       .  S
Al185       O190   1.793       .  S
O186        C193   1.258       .  A
O186       Al194   1.895       .  S
O187        C196   1.256       .  A
O187       Al194   1.893       .  S
O188       Al194   1.908       .  S
O189        C196   1.261       .  A
O190       Al194   1.808       .  S
O191        C192   1.260       .  A
C192        C241   1.466       .  S
C196        C680   1.467       .  S
C197        O198   1.249       .  A
O199        C214   1.256       .  A
O199       Al207   1.876       .  S
C200        O210   1.261       .  A
C200        O201   1.259       .  A
C200       C1234   1.471       .  S
O201       Al203   1.902       .  S
O202        C204   1.264       .  A
O202       Al203   1.910       .  S
Al203       O211   1.901       .  S
Al203       O213   1.945       .  S
Al203       O212   1.802       .  S
C204        O217   1.260       .  A
O205        C215   1.255       .  A
O205       Al207   1.865       .  S
O206        C219   1.261       .  A
O206       Al216   1.914       .  S
Al207       O220   1.892       .  S
Al207       O217   1.897       .  S
Al207       O212   1.774       .  S
O208        C215   1.263       .  A
O208       Al216   1.939       .  S
O209        C218   1.258       .  A
O209       Al216   1.890       .  S
O210       Al216   1.904       .  S
O211        C218   1.262       .  A
O212       Al216   1.807       .  S
O213        C214   1.262       .  A
C215        C248   1.472       .  S
C218        C658   1.462       .  S
C219        O220   1.262       .  A
C219        C236   1.458       .  S
O221        C236   1.252       .  A
O221       Al229   1.869       .  S
C222        O232   1.260       .  A
C222        O223   1.260       .  A
C222        C310   1.462       .  S
O223       Al225   1.897       .  S
O224        C226   1.261       .  A
O224       Al225   1.907       .  S
Al225       O233   1.900       .  S
Al225       O235   1.916       .  S
Al225       O234   1.800       .  S
C226        O239   1.261       .  A
C226        C258   1.470       .  S
O227        C237   1.254       .  A
O227       Al229   1.857       .  S
O228        C241   1.263       .  A
O228       Al238   1.916       .  S
Al229       O242   1.892       .  S
Al229       O239   1.906       .  S
Al229       O234   1.784       .  S
O230        C237   1.261       .  A
O230       Al238   1.939       .  S
O231        C240   1.261       .  A
O231       Al238   1.902       .  S
O232       Al238   1.894       .  S
O233        C240   1.258       .  A
O234       Al238   1.807       .  S
O235        C236   1.261       .  A
C240        C618   1.467       .  S
C241        O242   1.259       .  A
O243        C258   1.261       .  A
O243       Al251   1.905       .  S
C244        O254   1.261       .  A
C244        O245   1.256       .  A
C244       C1212   1.459       .  S
O245       Al247   1.886       .  S
O246        C248   1.260       .  A
O246       Al247   1.938       .  S
Al247       O255   1.905       .  S
Al247       O257   1.909       .  S
Al247       O256   1.808       .  S
C248        O261   1.253       .  A
O249        C259   1.262       .  A
O249       Al251   1.897       .  S
O250        C263   1.261       .  A
O250       Al260   1.934       .  S
Al251       O264   1.851       .  S
Al251       O261   1.860       .  S
Al251       O256   1.780       .  S
O252        C259   1.259       .  A
O252       Al260   1.912       .  S
O253        C262   1.256       .  A
O253       Al260   1.888       .  S
O254       Al260   1.895       .  S
O255        C262   1.262       .  A
O256       Al260   1.812       .  S
O257        C258   1.262       .  A
C262        C306   1.466       .  S
C263        O264   1.252       .  A
O265        C280   1.256       .  A
O265       Al273   1.876       .  S
C266        O276   1.261       .  A
C266        O267   1.259       .  A
C266       C1344   1.470   1_455  S
O267       Al269   1.902       .  S
O268        C270   1.264       .  A
O268       Al269   1.910       .  S
Al269       O277   1.900       .  S
Al269       O279   1.946       .  S
Al269       O278   1.802       .  S
C270        O283   1.260       .  A
C270        C457   1.462       .  S
O271        C281   1.255       .  A
O271       Al273   1.866       .  S
O272        C285   1.260       .  A
O272       Al282   1.913       .  S
Al273       O286   1.891       .  S
Al273       O283   1.896       .  S
Al273       O278   1.774       .  S
O274        C281   1.263       .  A
O274       Al282   1.940       .  S
O275        C284   1.258       .  A
O275       Al282   1.890       .  S
O276       Al282   1.903       .  S
O277        C284   1.262       .  A
O278       Al282   1.806       .  S
O279        C280   1.263       .  A
C280        C314   1.481       .  S
C281        C402   1.473       .  S
C285        O286   1.262       .  A
C285        C347   1.458       .  S
O287        C302   1.259       .  A
O287       Al295   1.895       .  S
C288        O298   1.260       .  A
C288        O289   1.259       .  A
C288       C1322   1.470       .  S
O289       Al291   1.897       .  S
O290        C292   1.263       .  A
O290       Al291   1.928       .  S
Al291       O299   1.903       .  S
Al291       O301   1.907       .  S
Al291       O300   1.805       .  S
C292        O305   1.250       .  A
C292        C391   1.463       .  S
O293        C303   1.259       .  A
O293       Al295   1.899       .  S
O294        C307   1.261       .  A
O294       Al304   1.917       .  S
Al295       O308   1.860       .  S
Al295       O305   1.858       .  S
Al295       O300   1.791       .  S
O296        C303   1.259       .  A
O296       Al304   1.896       .  S
O297        C306   1.256       .  A
O297       Al304   1.894       .  S
O298       Al304   1.906       .  S
O299        C306   1.262       .  A
O300       Al304   1.806       .  S
O301        C302   1.260       .  A
C302        C336   1.466       .  S
C303        C468   1.463       .  S
C307        O308   1.250       .  A
C307        C325   1.458       .  S
O309        C324   1.263       .  A
O309       Al317   1.893       .  S
C310        O320   1.259       .  A
C310        O311   1.259       .  A
O311       Al313   1.893       .  S
O312        C314   1.264       .  A
O312       Al313   1.949       .  S
Al313       O321   1.895       .  S
Al313       O323   1.907       .  S
Al313       O322   1.809       .  S
C314        O327   1.254       .  A
O315        C325   1.262       .  A
O315       Al317   1.893       .  S
O316        C329   1.264       .  A
O316       Al326   1.949       .  S
Al317       O330   1.869       .  S
Al317       O327   1.869       .  S
Al317       O322   1.772       .  S
O318        C325   1.259       .  A
O318       Al326   1.908       .  S
O319        C328   1.260       .  A
O319       Al326   1.894       .  S
O320       Al326   1.895       .  S
O321        C328   1.258       .  A
O322       Al326   1.809       .  S
O323        C324   1.259       .  A
C324        C461   1.458       .  S
C328        C878   1.463       .  S
C329        O330   1.254       .  A
C329        C478   1.481       .  S
O331        C346   1.255       .  A
O331       Al339   1.857       .  S
C332        O342   1.258       .  A
C332        O333   1.262       .  A
O333       Al335   1.902       .  S
O334        C336   1.262       .  A
O334       Al335   1.915       .  S
Al335       O343   1.893       .  S
Al335       O345   1.939       .  S
Al335       O344   1.807       .  S
C336        O349   1.258       .  A
O337        C347   1.252       .  A
O337       Al339   1.868       .  S
O338        C351   1.261       .  A
O338       Al348   1.906       .  S
Al339       O352   1.906       .  S
Al339       O349   1.893       .  S
Al339       O344   1.784       .  S
O340        C347   1.261       .  A
O340       Al348   1.916       .  S
O341        C350   1.260       .  A
O341       Al348   1.898       .  S
O342       Al348   1.900       .  S
O343        C350   1.259       .  A
O344       Al348   1.801       .  S
O345        C346   1.262       .  A
C346        C395   1.471       .  S
C350        C856   1.463   1_545  S
C351        O352   1.261       .  A
C351        C412   1.470       .  S
O353        C368   1.254       .  A
O353       Al361   1.860       .  S
C354        O364   1.259       .  A
C354        O355   1.261       .  A
C354       C1032   1.467   1_545  S
O355       Al357   1.901       .  S
O356        C358   1.264       .  A
O356       Al357   1.917       .  S
Al357       O365   1.900       .  S
Al357       O367   1.930       .  S
Al357       O366   1.804       .  S
C358        O371   1.260       .  A
C358        C390   1.470       .  S
O359        C369   1.254       .  A
O359       Al361   1.861       .  S
O360        C373   1.264       .  A
O360       Al370   1.917       .  S
Al361       O374   1.901       .  S
Al361       O371   1.901       .  S
Al361       O366   1.783       .  S
O362        C369   1.260       .  A
O362       Al370   1.931       .  S
O363        C372   1.262       .  A
O363       Al370   1.903       .  S
O364       Al370   1.900       .  S
O365        C372   1.259       .  A
O366       Al370   1.803       .  S
O367        C368   1.260       .  A
C368        C527   1.466       .  S
C369        C417   1.466       .  S
C373        O374   1.260       .  A
C373        C434   1.470       .  S
O375        C390   1.262       .  A
O375       Al383   1.911       .  S
C376        O386   1.261       .  A
C376        O377   1.256       .  A
C376       C1454   1.459       .  S
O377       Al379   1.886       .  S
O378        C380   1.261       .  A
O378       Al379   1.923       .  S
Al379       O387   1.900       .  S
Al379       O389   1.899       .  S
Al379       O388   1.805       .  S
C380        O393   1.250       .  A
C380        C523   1.465       .  S
O381        C391   1.261       .  A
O381       Al383   1.891       .  S
O382        C395   1.262       .  A
O382       Al392   1.942       .  S
Al383       O396   1.848       .  S
Al383       O393   1.868       .  S
Al383       O388   1.783       .  S
O384        C391   1.258       .  A
O384       Al392   1.913       .  S
O385        C394   1.256       .  A
O385       Al392   1.884       .  S
O386       Al392   1.894       .  S
O387        C394   1.260       .  A
O388       Al392   1.816       .  S
O389        C390   1.259       .  A
C394       C1010   1.462   1_545  S
C395        O396   1.252       .  A
O397        C412   1.261       .  A
O397       Al405   1.905       .  S
C398        O408   1.261       .  A
C398        O399   1.257       .  A
C398       C1432   1.459   1_455  S
O399       Al401   1.886       .  S
O400        C402   1.260       .  A
O400       Al401   1.939       .  S
Al401       O409   1.905       .  S
Al401       O411   1.909       .  S
Al401       O410   1.807       .  S
C402        O415   1.253       .  A
O403        C413   1.262       .  A
O403       Al405   1.897       .  S
O404        C417   1.261       .  A
O404       Al414   1.934       .  S
Al405       O418   1.852       .  S
Al405       O415   1.862       .  S
Al405       O410   1.780       .  S
O406        C413   1.259       .  A
O406       Al414   1.912       .  S
O407        C416   1.256       .  A
O407       Al414   1.888       .  S
O408       Al414   1.895       .  S
O409        C416   1.262       .  A
O410       Al414   1.812       .  S
O411        C412   1.262       .  A
C413        C424   1.465       .  S
C416        C988   1.467   1_545  S
C417        O418   1.252       .  A
O419        C434   1.262       .  A
O419       Al427   1.911       .  S
C420        O430   1.261       .  A
C420        O421   1.256       .  A
C420       C1564   1.459   1_455  S
O421       Al423   1.887       .  S
O422        C424   1.261       .  A
O422       Al423   1.923       .  S
Al423       O431   1.899       .  S
Al423       O433   1.899       .  S
Al423       O432   1.804       .  S
C424        O437   1.251       .  A
O425        C435   1.261       .  A
O425       Al427   1.891       .  S
O426        C439   1.262       .  A
O426       Al436   1.943       .  S
Al427       O440   1.849       .  S
Al427       O437   1.869       .  S
Al427       O432   1.782       .  S
O428        C435   1.258       .  A
O428       Al436   1.913       .  S
O429        C438   1.257       .  A
O429       Al436   1.884       .  S
O430       Al436   1.895       .  S
O431        C438   1.260       .  A
O432       Al436   1.815       .  S
O433        C434   1.259       .  A
C435        C446   1.463       .  S
C439        O440   1.252       .  A
C439        C501   1.471       .  S
O441        C456   1.259       .  A
O441       Al449   1.894       .  S
C442        O452   1.261       .  A
C442        O443   1.258       .  A
C442       C1520   1.471   1_455  S
O443       Al445   1.895       .  S
O444        C446   1.262       .  A
O444       Al445   1.926       .  S
Al445       O453   1.902       .  S
Al445       O455   1.906       .  S
Al445       O454   1.807       .  S
C446        O459   1.250       .  A
O447        C457   1.259       .  A
O447       Al449   1.897       .  S
O448        C461   1.261       .  A
O448       Al458   1.917       .  S
Al449       O462   1.859       .  S
Al449       O459   1.856       .  S
Al449       O454   1.793       .  S
O450        C457   1.258       .  A
O450       Al458   1.895       .  S
O451        C460   1.256       .  A
O451       Al458   1.893       .  S
O452       Al458   1.908       .  S
O453        C460   1.261       .  A
O454       Al458   1.808       .  S
O455        C456   1.260       .  A
C456        C505   1.466       .  S
C460        C944   1.467       .  S
C461        O462   1.249       .  A
O463        C478   1.256       .  A
O463       Al471   1.876       .  S
C464        O474   1.261       .  A
C464        O465   1.259       .  A
C464       C1498   1.471       .  S
O465       Al467   1.902       .  S
O466        C468   1.264       .  A
O466       Al467   1.910       .  S
Al467       O475   1.901       .  S
Al467       O477   1.945       .  S
Al467       O476   1.802       .  S
C468        O481   1.260       .  A
O469        C479   1.255       .  A
O469       Al471   1.865       .  S
O470        C483   1.261       .  A
O470       Al480   1.914       .  S
Al471       O484   1.892       .  S
Al471       O481   1.897       .  S
Al471       O476   1.774       .  S
O472        C479   1.263       .  A
O472       Al480   1.939       .  S
O473        C482   1.258       .  A
O473       Al480   1.890       .  S
O474       Al480   1.904       .  S
O475        C482   1.262       .  A
O476       Al480   1.807       .  S
O477        C478   1.262       .  A
C479        C512   1.472       .  S
C482        C922   1.462       .  S
C483        O484   1.262       .  A
C483        C500   1.458       .  S
O485        C500   1.252       .  A
O485       Al493   1.869       .  S
C486        O496   1.260       .  A
C486        O487   1.260       .  A
O487       Al489   1.897       .  S
O488        C490   1.261       .  A
O488       Al489   1.907       .  S
Al489       O497   1.900       .  S
Al489       O499   1.916       .  S
Al489       O498   1.800       .  S
C490        O503   1.261       .  A
C490        C522   1.470       .  S
O491        C501   1.254       .  A
O491       Al493   1.857       .  S
O492        C505   1.263       .  A
O492       Al502   1.916       .  S
Al493       O506   1.892       .  S
Al493       O503   1.906       .  S
Al493       O498   1.784       .  S
O494        C501   1.261       .  A
O494       Al502   1.939       .  S
O495        C504   1.261       .  A
O495       Al502   1.902       .  S
O496       Al502   1.894       .  S
O497        C504   1.258       .  A
O498       Al502   1.807       .  S
O499        C500   1.261       .  A
C504        C882   1.467       .  S
C505        O506   1.259       .  A
O507        C522   1.261       .  A
O507       Al515   1.905       .  S
C508        O518   1.261       .  A
C508        O509   1.256       .  A
C508       C1476   1.459       .  S
O509       Al511   1.886       .  S
O510        C512   1.260       .  A
O510       Al511   1.938       .  S
Al511       O519   1.905       .  S
Al511       O521   1.909       .  S
Al511       O520   1.808       .  S
C512        O525   1.253       .  A
O513        C523   1.262       .  A
O513       Al515   1.897       .  S
O514        C527   1.261       .  A
O514       Al524   1.934       .  S
Al515       O528   1.851       .  S
Al515       O525   1.860       .  S
Al515       O520   1.780       .  S
O516        C523   1.259       .  A
O516       Al524   1.912       .  S
O517        C526   1.256       .  A
O517       Al524   1.888       .  S
O518       Al524   1.895       .  S
O519        C526   1.262       .  A
O520       Al524   1.812       .  S
O521        C522   1.262       .  A
C527        O528   1.252       .  A
O529        C544   1.256       .  A
O529       Al537   1.876       .  S
C530        O540   1.261       .  A
C530        O531   1.259       .  A
C530       C1608   1.470   1_455  S
O531       Al533   1.902       .  S
O532        C534   1.264       .  A
O532       Al533   1.910       .  S
Al533       O541   1.900       .  S
Al533       O543   1.946       .  S
Al533       O542   1.802       .  S
C534        O547   1.260       .  A
C534        C721   1.462       .  S
O535        C545   1.255       .  A
O535       Al537   1.866       .  S
O536        C549   1.260       .  A
O536       Al546   1.913       .  S
Al537       O550   1.891       .  S
Al537       O547   1.896       .  S
Al537       O542   1.774       .  S
O538        C545   1.263       .  A
O538       Al546   1.940       .  S
O539        C548   1.258       .  A
O539       Al546   1.890       .  S
O540       Al546   1.903       .  S
O541        C548   1.262       .  A
O542       Al546   1.806       .  S
O543        C544   1.263       .  A
C544        C578   1.481       .  S
C545        C666   1.473       .  S
C548        C966   1.462   1_554  S
C549        O550   1.262       .  A
C549        C611   1.458       .  S
O551        C566   1.259       .  A
O551       Al559   1.895       .  S
C552        O562   1.260       .  A
C552        O553   1.259       .  A
C552       C1586   1.470       .  S
O553       Al555   1.897       .  S
O554        C556   1.263       .  A
O554       Al555   1.928       .  S
Al555       O563   1.903       .  S
Al555       O565   1.907       .  S
Al555       O564   1.805       .  S
C556        O569   1.250       .  A
C556        C655   1.463       .  S
O557        C567   1.259       .  A
O557       Al559   1.899       .  S
O558        C571   1.261       .  A
O558       Al568   1.917       .  S
Al559       O572   1.860       .  S
Al559       O569   1.858       .  S
Al559       O564   1.791       .  S
O560        C567   1.259       .  A
O560       Al568   1.896       .  S
O561        C570   1.256       .  A
O561       Al568   1.894       .  S
O562       Al568   1.906       .  S
O563        C570   1.262       .  A
O564       Al568   1.806       .  S
O565        C566   1.260       .  A
C566        C600   1.466       .  S
C567        C732   1.463       .  S
C570       C1054   1.466   1_554  S
C571        O572   1.250       .  A
C571        C589   1.458       .  S
O573        C588   1.263       .  A
O573       Al581   1.893       .  S
C574        O584   1.259       .  A
C574        O575   1.259       .  A
C574       C1014   1.462   1_554  S
O575       Al577   1.893       .  S
O576        C578   1.264       .  A
O576       Al577   1.949       .  S
Al577       O585   1.895       .  S
Al577       O587   1.907       .  S
Al577       O586   1.809       .  S
C578        O591   1.254       .  A
O579        C589   1.262       .  A
O579       Al581   1.893       .  S
O580        C593   1.264       .  A
O580       Al590   1.949       .  S
Al581       O594   1.869       .  S
Al581       O591   1.869       .  S
Al581       O586   1.772       .  S
O582        C589   1.259       .  A
O582       Al590   1.908       .  S
O583        C592   1.260       .  A
O583       Al590   1.894       .  S
O584       Al590   1.895       .  S
O585        C592   1.258       .  A
O586       Al590   1.809       .  S
O587        C588   1.259       .  A
C588        C725   1.458       .  S
C593        O594   1.254       .  A
C593        C742   1.481       .  S
O595        C610   1.255       .  A
O595       Al603   1.857       .  S
C596        O606   1.258       .  A
C596        O597   1.262       .  A
C596        C900   1.468   1_554  S
O597       Al599   1.902       .  S
O598        C600   1.262       .  A
O598       Al599   1.915       .  S
Al599       O607   1.893       .  S
Al599       O609   1.939       .  S
Al599       O608   1.807       .  S
C600        O613   1.258       .  A
O601        C611   1.252       .  A
O601       Al603   1.868       .  S
O602        C615   1.261       .  A
O602       Al612   1.906       .  S
Al603       O616   1.906       .  S
Al603       O613   1.893       .  S
Al603       O608   1.784       .  S
O604        C611   1.261       .  A
O604       Al612   1.916       .  S
O605        C614   1.260       .  A
O605       Al612   1.898       .  S
O606       Al612   1.900       .  S
O607        C614   1.259       .  A
O608       Al612   1.801       .  S
O609        C610   1.262       .  A
C610        C659   1.471       .  S
C615        O616   1.261       .  A
C615        C676   1.470       .  S
O617        C632   1.254       .  A
O617       Al625   1.860       .  S
C618        O628   1.259       .  A
C618        O619   1.261       .  A
O619       Al621   1.901       .  S
O620        C622   1.264       .  A
O620       Al621   1.917       .  S
Al621       O629   1.900       .  S
Al621       O631   1.930       .  S
Al621       O630   1.804       .  S
C622        O635   1.260       .  A
C622        C654   1.470       .  S
O623        C633   1.254       .  A
O623       Al625   1.861       .  S
O624        C637   1.264       .  A
O624       Al634   1.917       .  S
Al625       O638   1.901       .  S
Al625       O635   1.901       .  S
Al625       O630   1.783       .  S
O626        C633   1.260       .  A
O626       Al634   1.931       .  S
O627        C636   1.262       .  A
O627       Al634   1.903       .  S
O628       Al634   1.900       .  S
O629        C636   1.259       .  A
O630       Al634   1.803       .  S
O631        C632   1.260       .  A
C632        C791   1.466       .  S
C633        C681   1.466       .  S
C636        C860   1.468       .  S
C637        O638   1.260       .  A
C637        C698   1.470       .  S
O639        C654   1.262       .  A
O639       Al647   1.911       .  S
C640        O650   1.261       .  A
C640        O641   1.256       .  A
C640       C1718   1.459       .  S
O641       Al643   1.886       .  S
O642        C644   1.261       .  A
O642       Al643   1.923       .  S
Al643       O651   1.900       .  S
Al643       O653   1.899       .  S
Al643       O652   1.805       .  S
C644        O657   1.250       .  A
C644        C787   1.465       .  S
O645        C655   1.261       .  A
O645       Al647   1.891       .  S
O646        C659   1.262       .  A
O646       Al656   1.942       .  S
Al647       O660   1.848       .  S
Al647       O657   1.868       .  S
Al647       O652   1.783       .  S
O648        C655   1.258       .  A
O648       Al656   1.913       .  S
O649        C658   1.256       .  A
O649       Al656   1.884       .  S
O650       Al656   1.894       .  S
O651        C658   1.260       .  A
O652       Al656   1.816       .  S
O653        C654   1.259       .  A
C659        O660   1.252       .  A
O661        C676   1.261       .  A
O661       Al669   1.905       .  S
C662        O672   1.261       .  A
C662        O663   1.257       .  A
C662       C1696   1.459   1_455  S
O663       Al665   1.886       .  S
O664        C666   1.260       .  A
O664       Al665   1.939       .  S
Al665       O673   1.905       .  S
Al665       O675   1.909       .  S
Al665       O674   1.807       .  S
C666        O679   1.253       .  A
O667        C677   1.262       .  A
O667       Al669   1.897       .  S
O668        C681   1.261       .  A
O668       Al678   1.934       .  S
Al669       O682   1.852       .  S
Al669       O679   1.862       .  S
Al669       O674   1.780       .  S
O670        C677   1.259       .  A
O670       Al678   1.912       .  S
O671        C680   1.256       .  A
O671       Al678   1.888       .  S
O672       Al678   1.895       .  S
O673        C680   1.262       .  A
O674       Al678   1.812       .  S
O675        C676   1.262       .  A
C677        C688   1.465       .  S
C681        O682   1.252       .  A
O683        C698   1.262       .  A
O683       Al691   1.911       .  S
C684        O694   1.261       .  A
C684        O685   1.256       .  A
C684       C1828   1.459   1_455  S
O685       Al687   1.887       .  S
O686        C688   1.261       .  A
O686       Al687   1.923       .  S
Al687       O695   1.899       .  S
Al687       O697   1.899       .  S
Al687       O696   1.804       .  S
C688        O701   1.251       .  A
O689        C699   1.261       .  A
O689       Al691   1.891       .  S
O690        C703   1.262       .  A
O690       Al700   1.943       .  S
Al691       O704   1.849       .  S
Al691       O701   1.869       .  S
Al691       O696   1.782       .  S
O692        C699   1.258       .  A
O692       Al700   1.913       .  S
O693        C702   1.257       .  A
O693       Al700   1.884       .  S
O694       Al700   1.895       .  S
O695        C702   1.260       .  A
O696       Al700   1.815       .  S
O697        C698   1.259       .  A
C699        C710   1.463       .  S
C702        C812   1.462       .  S
C703        O704   1.252       .  A
C703        C765   1.471       .  S
O705        C720   1.259       .  A
O705       Al713   1.894       .  S
C706        O716   1.261       .  A
C706        O707   1.258       .  A
C706       C1784   1.471   1_455  S
O707       Al709   1.895       .  S
O708        C710   1.262       .  A
O708       Al709   1.926       .  S
Al709       O717   1.902       .  S
Al709       O719   1.906       .  S
Al709       O718   1.807       .  S
C710        O723   1.250       .  A
O711        C721   1.259       .  A
O711       Al713   1.897       .  S
O712        C725   1.261       .  A
O712       Al722   1.917       .  S
Al713       O726   1.859       .  S
Al713       O723   1.856       .  S
Al713       O718   1.793       .  S
O714        C721   1.258       .  A
O714       Al722   1.895       .  S
O715        C724   1.256       .  A
O715       Al722   1.893       .  S
O716       Al722   1.908       .  S
O717        C724   1.261       .  A
O718       Al722   1.808       .  S
O719        C720   1.260       .  A
C720        C769   1.466       .  S
C725        O726   1.249       .  A
O727        C742   1.256       .  A
O727       Al735   1.876       .  S
C728        O738   1.261       .  A
C728        O729   1.259       .  A
C728       C1762   1.471       .  S
O729       Al731   1.902       .  S
O730        C732   1.264       .  A
O730       Al731   1.910       .  S
Al731       O739   1.901       .  S
Al731       O741   1.945       .  S
Al731       O740   1.802       .  S
C732        O745   1.260       .  A
O733        C743   1.255       .  A
O733       Al735   1.865       .  S
O734        C747   1.261       .  A
O734       Al744   1.914       .  S
Al735       O748   1.892       .  S
Al735       O745   1.897       .  S
Al735       O740   1.774       .  S
O736        C743   1.263       .  A
O736       Al744   1.939       .  S
O737        C746   1.258       .  A
O737       Al744   1.890       .  S
O738       Al744   1.904       .  S
O739        C746   1.262       .  A
O740       Al744   1.807       .  S
O741        C742   1.262       .  A
C743        C776   1.472       .  S
C747        O748   1.262       .  A
C747        C764   1.458       .  S
O749        C764   1.252       .  A
O749       Al757   1.869       .  S
C750        O760   1.260       .  A
C750        O751   1.260       .  A
C750        C838   1.462       .  S
O751       Al753   1.897       .  S
O752        C754   1.261       .  A
O752       Al753   1.907       .  S
Al753       O761   1.900       .  S
Al753       O763   1.916       .  S
Al753       O762   1.800       .  S
C754        O767   1.261       .  A
C754        C786   1.470       .  S
O755        C765   1.254       .  A
O755       Al757   1.857       .  S
O756        C769   1.263       .  A
O756       Al766   1.916       .  S
Al757       O770   1.892       .  S
Al757       O767   1.906       .  S
Al757       O762   1.784       .  S
O758        C765   1.261       .  A
O758       Al766   1.939       .  S
O759        C768   1.261       .  A
O759       Al766   1.902       .  S
O760       Al766   1.894       .  S
O761        C768   1.258       .  A
O762       Al766   1.807       .  S
O763        C764   1.261       .  A
C769        O770   1.259       .  A
O771        C786   1.261       .  A
O771       Al779   1.905       .  S
C772        O782   1.261       .  A
C772        O773   1.256       .  A
C772       C1740   1.459       .  S
O773       Al775   1.886       .  S
O774        C776   1.260       .  A
O774       Al775   1.938       .  S
Al775       O783   1.905       .  S
Al775       O785   1.909       .  S
Al775       O784   1.808       .  S
C776        O789   1.253       .  A
O777        C787   1.262       .  A
O777       Al779   1.897       .  S
O778        C791   1.261       .  A
O778       Al788   1.934       .  S
Al779       O792   1.851       .  S
Al779       O789   1.860       .  S
Al779       O784   1.780       .  S
O780        C787   1.259       .  A
O780       Al788   1.912       .  S
O781        C790   1.256       .  A
O781       Al788   1.888       .  S
O782       Al788   1.895       .  S
O783        C790   1.262       .  A
O784       Al788   1.812       .  S
O785        C786   1.262       .  A
C790        C834   1.466       .  S
C791        O792   1.252       .  A
O793        C808   1.256       .  A
O793       Al801   1.876       .  S
C794        O804   1.261       .  A
C794        O795   1.259       .  A
C794       C1872   1.470   1_455  S
O795       Al797   1.902       .  S
O796        C798   1.264       .  A
O796       Al797   1.910       .  S
Al797       O805   1.900       .  S
Al797       O807   1.946       .  S
Al797       O806   1.802       .  S
C798        O811   1.260       .  A
C798        C985   1.462       .  S
O799        C809   1.255       .  A
O799       Al801   1.866       .  S
O800        C813   1.260       .  A
O800       Al810   1.913       .  S
Al801       O814   1.891       .  S
Al801       O811   1.896       .  S
Al801       O806   1.774       .  S
O802        C809   1.263       .  A
O802       Al810   1.940       .  S
O803        C812   1.258       .  A
O803       Al810   1.890       .  S
O804       Al810   1.903       .  S
O805        C812   1.262       .  A
O806       Al810   1.806       .  S
O807        C808   1.263       .  A
C808        C842   1.481       .  S
C809        C930   1.473       .  S
C813        O814   1.262       .  A
C813        C875   1.458       .  S
O815        C830   1.259       .  A
O815       Al823   1.895       .  S
C816        O826   1.260       .  A
C816        O817   1.259       .  A
C816       C1850   1.470       .  S
O817       Al819   1.897       .  S
O818        C820   1.263       .  A
O818       Al819   1.928       .  S
Al819       O827   1.903       .  S
Al819       O829   1.907       .  S
Al819       O828   1.805       .  S
C820        O833   1.250       .  A
C820        C919   1.463       .  S
O821        C831   1.259       .  A
O821       Al823   1.899       .  S
O822        C835   1.261       .  A
O822       Al832   1.917       .  S
Al823       O836   1.860       .  S
Al823       O833   1.858       .  S
Al823       O828   1.791       .  S
O824        C831   1.259       .  A
O824       Al832   1.896       .  S
O825        C834   1.256       .  A
O825       Al832   1.894       .  S
O826       Al832   1.906       .  S
O827        C834   1.262       .  A
O828       Al832   1.806       .  S
O829        C830   1.260       .  A
C830        C864   1.466       .  S
C831        C996   1.463       .  S
C835        O836   1.250       .  A
C835        C853   1.458       .  S
O837        C852   1.263       .  A
O837       Al845   1.893       .  S
C838        O848   1.259       .  A
C838        O839   1.259       .  A
O839       Al841   1.893       .  S
O840        C842   1.264       .  A
O840       Al841   1.949       .  S
Al841       O849   1.895       .  S
Al841       O851   1.907       .  S
Al841       O850   1.809       .  S
C842        O855   1.254       .  A
O843        C853   1.262       .  A
O843       Al845   1.893       .  S
O844        C857   1.264       .  A
O844       Al854   1.949       .  S
Al845       O858   1.869       .  S
Al845       O855   1.869       .  S
Al845       O850   1.772       .  S
O846        C853   1.259       .  A
O846       Al854   1.908       .  S
O847        C856   1.260       .  A
O847       Al854   1.894       .  S
O848       Al854   1.895       .  S
O849        C856   1.258       .  A
O850       Al854   1.809       .  S
O851        C852   1.259       .  A
C852        C989   1.458       .  S
C857        O858   1.254       .  A
C857       C1006   1.481       .  S
O859        C874   1.255       .  A
O859       Al867   1.857       .  S
C860        O870   1.258       .  A
C860        O861   1.262       .  A
O861       Al863   1.902       .  S
O862        C864   1.262       .  A
O862       Al863   1.915       .  S
Al863       O871   1.893       .  S
Al863       O873   1.939       .  S
Al863       O872   1.807       .  S
C864        O877   1.258       .  A
O865        C875   1.252       .  A
O865       Al867   1.868       .  S
O866        C879   1.261       .  A
O866       Al876   1.906       .  S
Al867       O880   1.906       .  S
Al867       O877   1.893       .  S
Al867       O872   1.784       .  S
O868        C875   1.261       .  A
O868       Al876   1.916       .  S
O869        C878   1.260       .  A
O869       Al876   1.898       .  S
O870       Al876   1.900       .  S
O871        C878   1.259       .  A
O872       Al876   1.801       .  S
O873        C874   1.262       .  A
C874        C923   1.471       .  S
C879        O880   1.261       .  A
C879        C940   1.470       .  S
O881        C896   1.254       .  A
O881       Al889   1.860       .  S
C882        O892   1.259       .  A
C882        O883   1.261       .  A
O883       Al885   1.901       .  S
O884        C886   1.264       .  A
O884       Al885   1.917       .  S
Al885       O893   1.900       .  S
Al885       O895   1.930       .  S
Al885       O894   1.804       .  S
C886        O899   1.260       .  A
C886        C918   1.470       .  S
O887        C897   1.254       .  A
O887       Al889   1.861       .  S
O888        C901   1.264       .  A
O888       Al898   1.917       .  S
Al889       O902   1.901       .  S
Al889       O899   1.901       .  S
Al889       O894   1.783       .  S
O890        C897   1.260       .  A
O890       Al898   1.931       .  S
O891        C900   1.262       .  A
O891       Al898   1.903       .  S
O892       Al898   1.900       .  S
O893        C900   1.259       .  A
O894       Al898   1.803       .  S
O895        C896   1.260       .  A
C896       C1055   1.466       .  S
C897        C945   1.466       .  S
C901        O902   1.260       .  A
C901        C962   1.470       .  S
O903        C918   1.262       .  A
O903       Al911   1.911       .  S
C904        O914   1.261       .  A
C904        O905   1.256       .  A
C904       C1982   1.459       .  S
O905       Al907   1.886       .  S
O906        C908   1.261       .  A
O906       Al907   1.923       .  S
Al907       O915   1.900       .  S
Al907       O917   1.899       .  S
Al907       O916   1.805       .  S
C908        O921   1.250       .  A
C908       C1051   1.465       .  S
O909        C919   1.261       .  A
O909       Al911   1.891       .  S
O910        C923   1.262       .  A
O910       Al920   1.942       .  S
Al911       O924   1.848       .  S
Al911       O921   1.868       .  S
Al911       O916   1.783       .  S
O912        C919   1.258       .  A
O912       Al920   1.913       .  S
O913        C922   1.256       .  A
O913       Al920   1.884       .  S
O914       Al920   1.894       .  S
O915        C922   1.260       .  A
O916       Al920   1.816       .  S
O917        C918   1.259       .  A
C923        O924   1.252       .  A
O925        C940   1.261       .  A
O925       Al933   1.905       .  S
C926        O936   1.261       .  A
C926        O927   1.257       .  A
C926       C1960   1.459   1_455  S
O927       Al929   1.886       .  S
O928        C930   1.260       .  A
O928       Al929   1.939       .  S
Al929       O937   1.905       .  S
Al929       O939   1.909       .  S
Al929       O938   1.807       .  S
C930        O943   1.253       .  A
O931        C941   1.262       .  A
O931       Al933   1.897       .  S
O932        C945   1.261       .  A
O932       Al942   1.934       .  S
Al933       O946   1.852       .  S
Al933       O943   1.862       .  S
Al933       O938   1.780       .  S
O934        C941   1.259       .  A
O934       Al942   1.912       .  S
O935        C944   1.256       .  A
O935       Al942   1.888       .  S
O936       Al942   1.895       .  S
O937        C944   1.262       .  A
O938       Al942   1.812       .  S
O939        C940   1.262       .  A
C941        C952   1.465       .  S
C945        O946   1.252       .  A
O947        C962   1.262       .  A
O947       Al955   1.911       .  S
C948        O958   1.261       .  A
C948        O949   1.256       .  A
C948       C2092   1.459   1_455  S
O949       Al951   1.887       .  S
O950        C952   1.261       .  A
O950       Al951   1.923       .  S
Al951       O959   1.899       .  S
Al951       O961   1.899       .  S
Al951       O960   1.804       .  S
C952        O965   1.251       .  A
O953        C963   1.261       .  A
O953       Al955   1.891       .  S
O954        C967   1.262       .  A
O954       Al964   1.943       .  S
Al955       O968   1.849       .  S
Al955       O965   1.869       .  S
Al955       O960   1.782       .  S
O956        C963   1.258       .  A
O956       Al964   1.913       .  S
O957        C966   1.257       .  A
O957       Al964   1.884       .  S
O958       Al964   1.895       .  S
O959        C966   1.260       .  A
O960       Al964   1.815       .  S
O961        C962   1.259       .  A
C963        C974   1.463       .  S
C967        O968   1.252       .  A
C967       C1029   1.471       .  S
O969        C984   1.259       .  A
O969       Al977   1.894       .  S
C970        O980   1.261       .  A
C970        O971   1.258       .  A
C970       C2048   1.471   1_455  S
O971       Al973   1.895       .  S
O972        C974   1.262       .  A
O972       Al973   1.926       .  S
Al973       O981   1.902       .  S
Al973       O983   1.906       .  S
Al973       O982   1.807       .  S
C974        O987   1.250       .  A
O975        C985   1.259       .  A
O975       Al977   1.897       .  S
O976        C989   1.261       .  A
O976       Al986   1.917       .  S
Al977       O990   1.859       .  S
Al977       O987   1.856       .  S
Al977       O982   1.793       .  S
O978        C985   1.258       .  A
O978       Al986   1.895       .  S
O979        C988   1.256       .  A
O979       Al986   1.893       .  S
O980       Al986   1.908       .  S
O981        C988   1.261       .  A
O982       Al986   1.808       .  S
O983        C984   1.260       .  A
C984       C1033   1.466       .  S
C989        O990   1.249       .  A
O991       C1006   1.256       .  A
O991       Al999   1.876       .  S
C992       O1002   1.261       .  A
C992        O993   1.259       .  A
C992       C2026   1.471       .  S
O993       Al995   1.902       .  S
O994        C996   1.264       .  A
O994       Al995   1.910       .  S
Al995      O1003   1.901       .  S
Al995      O1005   1.945       .  S
Al995      O1004   1.802       .  S
C996       O1009   1.260       .  A
O997       C1007   1.255       .  A
O997       Al999   1.865       .  S
O998       C1011   1.261       .  A
O998      Al1008   1.914       .  S
Al999      O1012   1.892       .  S
Al999      O1009   1.897       .  S
Al999      O1004   1.774       .  S
O1000      C1007   1.263       .  A
O1000     Al1008   1.939       .  S
O1001      C1010   1.258       .  A
O1001     Al1008   1.890       .  S
O1002     Al1008   1.904       .  S
O1003      C1010   1.262       .  A
O1004     Al1008   1.807       .  S
O1005      C1006   1.262       .  A
C1007      C1040   1.472       .  S
C1011      O1012   1.262       .  A
C1011      C1028   1.458       .  S
O1013      C1028   1.252       .  A
O1013     Al1021   1.869       .  S
C1014      O1024   1.260       .  A
C1014      O1015   1.260       .  A
O1015     Al1017   1.897       .  S
O1016      C1018   1.261       .  A
O1016     Al1017   1.907       .  S
Al1017     O1025   1.900       .  S
Al1017     O1027   1.916       .  S
Al1017     O1026   1.800       .  S
C1018      O1031   1.261       .  A
C1018      C1050   1.470       .  S
O1019      C1029   1.254       .  A
O1019     Al1021   1.857       .  S
O1020      C1033   1.263       .  A
O1020     Al1030   1.916       .  S
Al1021     O1034   1.892       .  S
Al1021     O1031   1.906       .  S
Al1021     O1026   1.784       .  S
O1022      C1029   1.261       .  A
O1022     Al1030   1.939       .  S
O1023      C1032   1.261       .  A
O1023     Al1030   1.902       .  S
O1024     Al1030   1.894       .  S
O1025      C1032   1.258       .  A
O1026     Al1030   1.807       .  S
O1027      C1028   1.261       .  A
C1033      O1034   1.259       .  A
O1035      C1050   1.261       .  A
O1035     Al1043   1.905       .  S
C1036      O1046   1.261       .  A
C1036      O1037   1.256       .  A
C1036      C2004   1.459       .  S
O1037     Al1039   1.886       .  S
O1038      C1040   1.260       .  A
O1038     Al1039   1.938       .  S
Al1039     O1047   1.905       .  S
Al1039     O1049   1.909       .  S
Al1039     O1048   1.808       .  S
C1040      O1053   1.253       .  A
O1041      C1051   1.262       .  A
O1041     Al1043   1.897       .  S
O1042      C1055   1.261       .  A
O1042     Al1052   1.934       .  S
Al1043     O1056   1.851       .  S
Al1043     O1053   1.860       .  S
Al1043     O1048   1.780       .  S
O1044      C1051   1.259       .  A
O1044     Al1052   1.912       .  S
O1045      C1054   1.256       .  A
O1045     Al1052   1.888       .  S
O1046     Al1052   1.895       .  S
O1047      C1054   1.262       .  A
O1048     Al1052   1.812       .  S
O1049      C1050   1.262       .  A
C1055      O1056   1.252       .  A
O1057      C1072   1.256       .  A
O1057     Al1065   1.876       .  S
C1058      O1068   1.261       .  A
C1058      O1059   1.259       .  A
O1059     Al1061   1.902       .  S
O1060      C1062   1.264       .  A
O1060     Al1061   1.910       .  S
Al1061     O1069   1.900       .  S
Al1061     O1071   1.946       .  S
Al1061     O1070   1.802       .  S
C1062      O1075   1.260       .  A
C1062      C1249   1.462       .  S
O1063      C1073   1.255       .  A
O1063     Al1065   1.866       .  S
O1064      C1077   1.260       .  A
O1064     Al1074   1.913       .  S
Al1065     O1078   1.891       .  S
Al1065     O1075   1.896       .  S
Al1065     O1070   1.774       .  S
O1066      C1073   1.263       .  A
O1066     Al1074   1.940       .  S
O1067      C1076   1.258       .  A
O1067     Al1074   1.890       .  S
O1068     Al1074   1.903       .  S
O1069      C1076   1.262       .  A
O1070     Al1074   1.806       .  S
O1071      C1072   1.263       .  A
C1072      C1106   1.481       .  S
C1073      C1194   1.473       .  S
C1076      C1494   1.462   1_554  S
C1077      O1078   1.262       .  A
C1077      C1139   1.458       .  S
O1079      C1094   1.259       .  A
O1079     Al1087   1.895       .  S
C1080      O1090   1.260       .  A
C1080      O1081   1.259       .  A
O1081     Al1083   1.897       .  S
O1082      C1084   1.263       .  A
O1082     Al1083   1.928       .  S
Al1083     O1091   1.903       .  S
Al1083     O1093   1.907       .  S
Al1083     O1092   1.805       .  S
C1084      O1097   1.250       .  A
C1084      C1183   1.463       .  S
O1085      C1095   1.259       .  A
O1085     Al1087   1.899       .  S
O1086      C1099   1.261       .  A
O1086     Al1096   1.917       .  S
Al1087     O1100   1.860       .  S
Al1087     O1097   1.858       .  S
Al1087     O1092   1.791       .  S
O1088      C1095   1.259       .  A
O1088     Al1096   1.896       .  S
O1089      C1098   1.256       .  A
O1089     Al1096   1.894       .  S
O1090     Al1096   1.906       .  S
O1091      C1098   1.262       .  A
O1092     Al1096   1.806       .  S
O1093      C1094   1.260       .  A
C1094      C1128   1.466       .  S
C1095      C1260   1.463       .  S
C1098      C1582   1.466   1_554  S
C1099      O1100   1.250       .  A
C1099      C1117   1.458       .  S
O1101      C1116   1.263       .  A
O1101     Al1109   1.893       .  S
C1102      O1112   1.259       .  A
C1102      O1103   1.259       .  A
C1102      C1542   1.462   1_554  S
O1103     Al1105   1.893       .  S
O1104      C1106   1.264       .  A
O1104     Al1105   1.949       .  S
Al1105     O1113   1.895       .  S
Al1105     O1115   1.907       .  S
Al1105     O1114   1.809       .  S
C1106      O1119   1.254       .  A
O1107      C1117   1.262       .  A
O1107     Al1109   1.893       .  S
O1108      C1121   1.264       .  A
O1108     Al1118   1.949       .  S
Al1109     O1122   1.869       .  S
Al1109     O1119   1.869       .  S
Al1109     O1114   1.772       .  S
O1110      C1117   1.259       .  A
O1110     Al1118   1.908       .  S
O1111      C1120   1.260       .  A
O1111     Al1118   1.894       .  S
O1112     Al1118   1.895       .  S
O1113      C1120   1.258       .  A
O1114     Al1118   1.809       .  S
O1115      C1116   1.259       .  A
C1116      C1253   1.458       .  S
C1120      C1670   1.463       .  S
C1121      O1122   1.254       .  A
C1121      C1270   1.481       .  S
O1123      C1138   1.255       .  A
O1123     Al1131   1.857       .  S
C1124      O1134   1.258       .  A
C1124      O1125   1.262       .  A
C1124      C1428   1.468   1_554  S
O1125     Al1127   1.902       .  S
O1126      C1128   1.262       .  A
O1126     Al1127   1.915       .  S
Al1127     O1135   1.893       .  S
Al1127     O1137   1.939       .  S
Al1127     O1136   1.807       .  S
C1128      O1141   1.258       .  A
O1129      C1139   1.252       .  A
O1129     Al1131   1.868       .  S
O1130      C1143   1.261       .  A
O1130     Al1140   1.906       .  S
Al1131     O1144   1.906       .  S
Al1131     O1141   1.893       .  S
Al1131     O1136   1.784       .  S
O1132      C1139   1.261       .  A
O1132     Al1140   1.916       .  S
O1133      C1142   1.260       .  A
O1133     Al1140   1.898       .  S
O1134     Al1140   1.900       .  S
O1135      C1142   1.259       .  A
O1136     Al1140   1.801       .  S
O1137      C1138   1.262       .  A
C1138      C1187   1.471       .  S
C1142      C1648   1.463   1_545  S
C1143      O1144   1.261       .  A
C1143      C1204   1.470       .  S
O1145      C1160   1.254       .  A
O1145     Al1153   1.860       .  S
C1146      O1156   1.259       .  A
C1146      O1147   1.261       .  A
C1146      C1824   1.467   1_545  S
O1147     Al1149   1.901       .  S
O1148      C1150   1.264       .  A
O1148     Al1149   1.917       .  S
Al1149     O1157   1.900       .  S
Al1149     O1159   1.930       .  S
Al1149     O1158   1.804       .  S
C1150      O1163   1.260       .  A
C1150      C1182   1.470       .  S
O1151      C1161   1.254       .  A
O1151     Al1153   1.861       .  S
O1152      C1165   1.264       .  A
O1152     Al1162   1.917       .  S
Al1153     O1166   1.901       .  S
Al1153     O1163   1.901       .  S
Al1153     O1158   1.783       .  S
O1154      C1161   1.260       .  A
O1154     Al1162   1.931       .  S
O1155      C1164   1.262       .  A
O1155     Al1162   1.903       .  S
O1156     Al1162   1.900       .  S
O1157      C1164   1.259       .  A
O1158     Al1162   1.803       .  S
O1159      C1160   1.260       .  A
C1160      C1319   1.466       .  S
C1161      C1209   1.466       .  S
C1164      C1388   1.468       .  S
C1165      O1166   1.260       .  A
C1165      C1226   1.470       .  S
O1167      C1182   1.262       .  A
O1167     Al1175   1.911       .  S
C1168      O1178   1.261       .  A
C1168      O1169   1.256       .  A
O1169     Al1171   1.886       .  S
O1170      C1172   1.261       .  A
O1170     Al1171   1.923       .  S
Al1171     O1179   1.900       .  S
Al1171     O1181   1.899       .  S
Al1171     O1180   1.805       .  S
C1172      O1185   1.250       .  A
C1172      C1315   1.465       .  S
O1173      C1183   1.261       .  A
O1173     Al1175   1.891       .  S
O1174      C1187   1.262       .  A
O1174     Al1184   1.942       .  S
Al1175     O1188   1.848       .  S
Al1175     O1185   1.868       .  S
Al1175     O1180   1.783       .  S
O1176      C1183   1.258       .  A
O1176     Al1184   1.913       .  S
O1177      C1186   1.256       .  A
O1177     Al1184   1.884       .  S
O1178     Al1184   1.894       .  S
O1179      C1186   1.260       .  A
O1180     Al1184   1.816       .  S
O1181      C1182   1.259       .  A
C1186      C1802   1.462   1_545  S
C1187      O1188   1.252       .  A
O1189      C1204   1.261       .  A
O1189     Al1197   1.905       .  S
C1190      O1200   1.261       .  A
C1190      O1191   1.257       .  A
O1191     Al1193   1.886       .  S
O1192      C1194   1.260       .  A
O1192     Al1193   1.939       .  S
Al1193     O1201   1.905       .  S
Al1193     O1203   1.909       .  S
Al1193     O1202   1.807       .  S
C1194      O1207   1.253       .  A
O1195      C1205   1.262       .  A
O1195     Al1197   1.897       .  S
O1196      C1209   1.261       .  A
O1196     Al1206   1.934       .  S
Al1197     O1210   1.852       .  S
Al1197     O1207   1.862       .  S
Al1197     O1202   1.780       .  S
O1198      C1205   1.259       .  A
O1198     Al1206   1.912       .  S
O1199      C1208   1.256       .  A
O1199     Al1206   1.888       .  S
O1200     Al1206   1.895       .  S
O1201      C1208   1.262       .  A
O1202     Al1206   1.812       .  S
O1203      C1204   1.262       .  A
C1205      C1216   1.465       .  S
C1208      C1780   1.467   1_545  S
C1209      O1210   1.252       .  A
O1211      C1226   1.262       .  A
O1211     Al1219   1.911       .  S
C1212      O1222   1.261       .  A
C1212      O1213   1.256       .  A
O1213     Al1215   1.887       .  S
O1214      C1216   1.261       .  A
O1214     Al1215   1.923       .  S
Al1215     O1223   1.899       .  S
Al1215     O1225   1.899       .  S
Al1215     O1224   1.804       .  S
C1216      O1229   1.251       .  A
O1217      C1227   1.261       .  A
O1217     Al1219   1.891       .  S
O1218      C1231   1.262       .  A
O1218     Al1228   1.943       .  S
Al1219     O1232   1.849       .  S
Al1219     O1229   1.869       .  S
Al1219     O1224   1.782       .  S
O1220      C1227   1.258       .  A
O1220     Al1228   1.913       .  S
O1221      C1230   1.257       .  A
O1221     Al1228   1.884       .  S
O1222     Al1228   1.895       .  S
O1223      C1230   1.260       .  A
O1224     Al1228   1.815       .  S
O1225      C1226   1.259       .  A
C1227      C1238   1.463       .  S
C1230      C1340   1.462       .  S
C1231      O1232   1.252       .  A
C1231      C1293   1.471       .  S
O1233      C1248   1.259       .  A
O1233     Al1241   1.894       .  S
C1234      O1244   1.261       .  A
C1234      O1235   1.258       .  A
O1235     Al1237   1.895       .  S
O1236      C1238   1.262       .  A
O1236     Al1237   1.926       .  S
Al1237     O1245   1.902       .  S
Al1237     O1247   1.906       .  S
Al1237     O1246   1.807       .  S
C1238      O1251   1.250       .  A
O1239      C1249   1.259       .  A
O1239     Al1241   1.897       .  S
O1240      C1253   1.261       .  A
O1240     Al1250   1.917       .  S
Al1241     O1254   1.859       .  S
Al1241     O1251   1.856       .  S
Al1241     O1246   1.793       .  S
O1242      C1249   1.258       .  A
O1242     Al1250   1.895       .  S
O1243      C1252   1.256       .  A
O1243     Al1250   1.893       .  S
O1244     Al1250   1.908       .  S
O1245      C1252   1.261       .  A
O1246     Al1250   1.808       .  S
O1247      C1248   1.260       .  A
C1248      C1297   1.466       .  S
C1252      C1736   1.467       .  S
C1253      O1254   1.249       .  A
O1255      C1270   1.256       .  A
O1255     Al1263   1.876       .  S
C1256      O1266   1.261       .  A
C1256      O1257   1.259       .  A
O1257     Al1259   1.902       .  S
O1258      C1260   1.264       .  A
O1258     Al1259   1.910       .  S
Al1259     O1267   1.901       .  S
Al1259     O1269   1.945       .  S
Al1259     O1268   1.802       .  S
C1260      O1273   1.260       .  A
O1261      C1271   1.255       .  A
O1261     Al1263   1.865       .  S
O1262      C1275   1.261       .  A
O1262     Al1272   1.914       .  S
Al1263     O1276   1.892       .  S
Al1263     O1273   1.897       .  S
Al1263     O1268   1.774       .  S
O1264      C1271   1.263       .  A
O1264     Al1272   1.939       .  S
O1265      C1274   1.258       .  A
O1265     Al1272   1.890       .  S
O1266     Al1272   1.904       .  S
O1267      C1274   1.262       .  A
O1268     Al1272   1.807       .  S
O1269      C1270   1.262       .  A
C1271      C1304   1.472       .  S
C1274      C1714   1.462       .  S
C1275      O1276   1.262       .  A
C1275      C1292   1.458       .  S
O1277      C1292   1.252       .  A
O1277     Al1285   1.869       .  S
C1278      O1288   1.260       .  A
C1278      O1279   1.260       .  A
C1278      C1366   1.462       .  S
O1279     Al1281   1.897       .  S
O1280      C1282   1.261       .  A
O1280     Al1281   1.907       .  S
Al1281     O1289   1.900       .  S
Al1281     O1291   1.916       .  S
Al1281     O1290   1.800       .  S
C1282      O1295   1.261       .  A
C1282      C1314   1.470       .  S
O1283      C1293   1.254       .  A
O1283     Al1285   1.857       .  S
O1284      C1297   1.263       .  A
O1284     Al1294   1.916       .  S
Al1285     O1298   1.892       .  S
Al1285     O1295   1.906       .  S
Al1285     O1290   1.784       .  S
O1286      C1293   1.261       .  A
O1286     Al1294   1.939       .  S
O1287      C1296   1.261       .  A
O1287     Al1294   1.902       .  S
O1288     Al1294   1.894       .  S
O1289      C1296   1.258       .  A
O1290     Al1294   1.807       .  S
O1291      C1292   1.261       .  A
C1296      C1674   1.467       .  S
C1297      O1298   1.259       .  A
O1299      C1314   1.261       .  A
O1299     Al1307   1.905       .  S
C1300      O1310   1.261       .  A
C1300      O1301   1.256       .  A
O1301     Al1303   1.886       .  S
O1302      C1304   1.260       .  A
O1302     Al1303   1.938       .  S
Al1303     O1311   1.905       .  S
Al1303     O1313   1.909       .  S
Al1303     O1312   1.808       .  S
C1304      O1317   1.253       .  A
O1305      C1315   1.262       .  A
O1305     Al1307   1.897       .  S
O1306      C1319   1.261       .  A
O1306     Al1316   1.934       .  S
Al1307     O1320   1.851       .  S
Al1307     O1317   1.860       .  S
Al1307     O1312   1.780       .  S
O1308      C1315   1.259       .  A
O1308     Al1316   1.912       .  S
O1309      C1318   1.256       .  A
O1309     Al1316   1.888       .  S
O1310     Al1316   1.895       .  S
O1311      C1318   1.262       .  A
O1312     Al1316   1.812       .  S
O1313      C1314   1.262       .  A
C1318      C1362   1.466       .  S
C1319      O1320   1.252       .  A
O1321      C1336   1.256       .  A
O1321     Al1329   1.876       .  S
C1322      O1332   1.261       .  A
C1322      O1323   1.259       .  A
O1323     Al1325   1.902       .  S
O1324      C1326   1.264       .  A
O1324     Al1325   1.910       .  S
Al1325     O1333   1.900       .  S
Al1325     O1335   1.946       .  S
Al1325     O1334   1.802       .  S
C1326      O1339   1.260       .  A
C1326      C1513   1.462       .  S
O1327      C1337   1.255       .  A
O1327     Al1329   1.866       .  S
O1328      C1341   1.260       .  A
O1328     Al1338   1.913       .  S
Al1329     O1342   1.891       .  S
Al1329     O1339   1.896       .  S
Al1329     O1334   1.774       .  S
O1330      C1337   1.263       .  A
O1330     Al1338   1.940       .  S
O1331      C1340   1.258       .  A
O1331     Al1338   1.890       .  S
O1332     Al1338   1.903       .  S
O1333      C1340   1.262       .  A
O1334     Al1338   1.806       .  S
O1335      C1336   1.263       .  A
C1336      C1370   1.481       .  S
C1337      C1458   1.473       .  S
C1341      O1342   1.262       .  A
C1341      C1403   1.458       .  S
O1343      C1358   1.259       .  A
O1343     Al1351   1.895       .  S
C1344      O1354   1.260       .  A
C1344      O1345   1.259       .  A
O1345     Al1347   1.897       .  S
O1346      C1348   1.263       .  A
O1346     Al1347   1.928       .  S
Al1347     O1355   1.903       .  S
Al1347     O1357   1.907       .  S
Al1347     O1356   1.805       .  S
C1348      O1361   1.250       .  A
C1348      C1447   1.463       .  S
O1349      C1359   1.259       .  A
O1349     Al1351   1.899       .  S
O1350      C1363   1.261       .  A
O1350     Al1360   1.917       .  S
Al1351     O1364   1.860       .  S
Al1351     O1361   1.858       .  S
Al1351     O1356   1.791       .  S
O1352      C1359   1.259       .  A
O1352     Al1360   1.896       .  S
O1353      C1362   1.256       .  A
O1353     Al1360   1.894       .  S
O1354     Al1360   1.906       .  S
O1355      C1362   1.262       .  A
O1356     Al1360   1.806       .  S
O1357      C1358   1.260       .  A
C1358      C1392   1.466       .  S
C1359      C1524   1.463       .  S
C1363      O1364   1.250       .  A
C1363      C1381   1.458       .  S
O1365      C1380   1.263       .  A
O1365     Al1373   1.893       .  S
C1366      O1376   1.259       .  A
C1366      O1367   1.259       .  A
O1367     Al1369   1.893       .  S
O1368      C1370   1.264       .  A
O1368     Al1369   1.949       .  S
Al1369     O1377   1.895       .  S
Al1369     O1379   1.907       .  S
Al1369     O1378   1.809       .  S
C1370      O1383   1.254       .  A
O1371      C1381   1.262       .  A
O1371     Al1373   1.893       .  S
O1372      C1385   1.264       .  A
O1372     Al1382   1.949       .  S
Al1373     O1386   1.869       .  S
Al1373     O1383   1.869       .  S
Al1373     O1378   1.772       .  S
O1374      C1381   1.259       .  A
O1374     Al1382   1.908       .  S
O1375      C1384   1.260       .  A
O1375     Al1382   1.894       .  S
O1376     Al1382   1.895       .  S
O1377      C1384   1.258       .  A
O1378     Al1382   1.809       .  S
O1379      C1380   1.259       .  A
C1380      C1517   1.458       .  S
C1384      C1934   1.463       .  S
C1385      O1386   1.254       .  A
C1385      C1534   1.481       .  S
O1387      C1402   1.255       .  A
O1387     Al1395   1.857       .  S
C1388      O1398   1.258       .  A
C1388      O1389   1.262       .  A
O1389     Al1391   1.902       .  S
O1390      C1392   1.262       .  A
O1390     Al1391   1.915       .  S
Al1391     O1399   1.893       .  S
Al1391     O1401   1.939       .  S
Al1391     O1400   1.807       .  S
C1392      O1405   1.258       .  A
O1393      C1403   1.252       .  A
O1393     Al1395   1.868       .  S
O1394      C1407   1.261       .  A
O1394     Al1404   1.906       .  S
Al1395     O1408   1.906       .  S
Al1395     O1405   1.893       .  S
Al1395     O1400   1.784       .  S
O1396      C1403   1.261       .  A
O1396     Al1404   1.916       .  S
O1397      C1406   1.260       .  A
O1397     Al1404   1.898       .  S
O1398     Al1404   1.900       .  S
O1399      C1406   1.259       .  A
O1400     Al1404   1.801       .  S
O1401      C1402   1.262       .  A
C1402      C1451   1.471       .  S
C1406      C1912   1.463   1_545  S
C1407      O1408   1.261       .  A
C1407      C1468   1.470       .  S
O1409      C1424   1.254       .  A
O1409     Al1417   1.860       .  S
C1410      O1420   1.259       .  A
C1410      O1411   1.261       .  A
C1410      C2088   1.467   1_545  S
O1411     Al1413   1.901       .  S
O1412      C1414   1.264       .  A
O1412     Al1413   1.917       .  S
Al1413     O1421   1.900       .  S
Al1413     O1423   1.930       .  S
Al1413     O1422   1.804       .  S
C1414      O1427   1.260       .  A
C1414      C1446   1.470       .  S
O1415      C1425   1.254       .  A
O1415     Al1417   1.861       .  S
O1416      C1429   1.264       .  A
O1416     Al1426   1.917       .  S
Al1417     O1430   1.901       .  S
Al1417     O1427   1.901       .  S
Al1417     O1422   1.783       .  S
O1418      C1425   1.260       .  A
O1418     Al1426   1.931       .  S
O1419      C1428   1.262       .  A
O1419     Al1426   1.903       .  S
O1420     Al1426   1.900       .  S
O1421      C1428   1.259       .  A
O1422     Al1426   1.803       .  S
O1423      C1424   1.260       .  A
C1424      C1583   1.466       .  S
C1425      C1473   1.466       .  S
C1429      O1430   1.260       .  A
C1429      C1490   1.470       .  S
O1431      C1446   1.262       .  A
O1431     Al1439   1.911       .  S
C1432      O1442   1.261       .  A
C1432      O1433   1.256       .  A
O1433     Al1435   1.886       .  S
O1434      C1436   1.261       .  A
O1434     Al1435   1.923       .  S
Al1435     O1443   1.900       .  S
Al1435     O1445   1.899       .  S
Al1435     O1444   1.805       .  S
C1436      O1449   1.250       .  A
C1436      C1579   1.465       .  S
O1437      C1447   1.261       .  A
O1437     Al1439   1.891       .  S
O1438      C1451   1.262       .  A
O1438     Al1448   1.942       .  S
Al1439     O1452   1.848       .  S
Al1439     O1449   1.868       .  S
Al1439     O1444   1.783       .  S
O1440      C1447   1.258       .  A
O1440     Al1448   1.913       .  S
O1441      C1450   1.256       .  A
O1441     Al1448   1.884       .  S
O1442     Al1448   1.894       .  S
O1443      C1450   1.260       .  A
O1444     Al1448   1.816       .  S
O1445      C1446   1.259       .  A
C1450      C2066   1.462   1_545  S
C1451      O1452   1.252       .  A
O1453      C1468   1.261       .  A
O1453     Al1461   1.905       .  S
C1454      O1464   1.261       .  A
C1454      O1455   1.257       .  A
O1455     Al1457   1.886       .  S
O1456      C1458   1.260       .  A
O1456     Al1457   1.939       .  S
Al1457     O1465   1.905       .  S
Al1457     O1467   1.909       .  S
Al1457     O1466   1.807       .  S
C1458      O1471   1.253       .  A
O1459      C1469   1.262       .  A
O1459     Al1461   1.897       .  S
O1460      C1473   1.261       .  A
O1460     Al1470   1.934       .  S
Al1461     O1474   1.852       .  S
Al1461     O1471   1.862       .  S
Al1461     O1466   1.780       .  S
O1462      C1469   1.259       .  A
O1462     Al1470   1.912       .  S
O1463      C1472   1.256       .  A
O1463     Al1470   1.888       .  S
O1464     Al1470   1.895       .  S
O1465      C1472   1.262       .  A
O1466     Al1470   1.812       .  S
O1467      C1468   1.262       .  A
C1469      C1480   1.465       .  S
C1472      C2044   1.467   1_545  S
C1473      O1474   1.252       .  A
O1475      C1490   1.262       .  A
O1475     Al1483   1.911       .  S
C1476      O1486   1.261       .  A
C1476      O1477   1.256       .  A
O1477     Al1479   1.887       .  S
O1478      C1480   1.261       .  A
O1478     Al1479   1.923       .  S
Al1479     O1487   1.899       .  S
Al1479     O1489   1.899       .  S
Al1479     O1488   1.804       .  S
C1480      O1493   1.251       .  A
O1481      C1491   1.261       .  A
O1481     Al1483   1.891       .  S
O1482      C1495   1.262       .  A
O1482     Al1492   1.943       .  S
Al1483     O1496   1.849       .  S
Al1483     O1493   1.869       .  S
Al1483     O1488   1.782       .  S
O1484      C1491   1.258       .  A
O1484     Al1492   1.913       .  S
O1485      C1494   1.257       .  A
O1485     Al1492   1.884       .  S
O1486     Al1492   1.895       .  S
O1487      C1494   1.260       .  A
O1488     Al1492   1.815       .  S
O1489      C1490   1.259       .  A
C1491      C1502   1.463       .  S
C1495      O1496   1.252       .  A
C1495      C1557   1.471       .  S
O1497      C1512   1.259       .  A
O1497     Al1505   1.894       .  S
C1498      O1508   1.261       .  A
C1498      O1499   1.258       .  A
O1499     Al1501   1.895       .  S
O1500      C1502   1.262       .  A
O1500     Al1501   1.926       .  S
Al1501     O1509   1.902       .  S
Al1501     O1511   1.906       .  S
Al1501     O1510   1.807       .  S
C1502      O1515   1.250       .  A
O1503      C1513   1.259       .  A
O1503     Al1505   1.897       .  S
O1504      C1517   1.261       .  A
O1504     Al1514   1.917       .  S
Al1505     O1518   1.859       .  S
Al1505     O1515   1.856       .  S
Al1505     O1510   1.793       .  S
O1506      C1513   1.258       .  A
O1506     Al1514   1.895       .  S
O1507      C1516   1.256       .  A
O1507     Al1514   1.893       .  S
O1508     Al1514   1.908       .  S
O1509      C1516   1.261       .  A
O1510     Al1514   1.808       .  S
O1511      C1512   1.260       .  A
C1512      C1561   1.466       .  S
C1516      C2000   1.467       .  S
C1517      O1518   1.249       .  A
O1519      C1534   1.256       .  A
O1519     Al1527   1.876       .  S
C1520      O1530   1.261       .  A
C1520      O1521   1.259       .  A
O1521     Al1523   1.902       .  S
O1522      C1524   1.264       .  A
O1522     Al1523   1.910       .  S
Al1523     O1531   1.901       .  S
Al1523     O1533   1.945       .  S
Al1523     O1532   1.802       .  S
C1524      O1537   1.260       .  A
O1525      C1535   1.255       .  A
O1525     Al1527   1.865       .  S
O1526      C1539   1.261       .  A
O1526     Al1536   1.914       .  S
Al1527     O1540   1.892       .  S
Al1527     O1537   1.897       .  S
Al1527     O1532   1.774       .  S
O1528      C1535   1.263       .  A
O1528     Al1536   1.939       .  S
O1529      C1538   1.258       .  A
O1529     Al1536   1.890       .  S
O1530     Al1536   1.904       .  S
O1531      C1538   1.262       .  A
O1532     Al1536   1.807       .  S
O1533      C1534   1.262       .  A
C1535      C1568   1.472       .  S
C1538      C1978   1.462       .  S
C1539      O1540   1.262       .  A
C1539      C1556   1.458       .  S
O1541      C1556   1.252       .  A
O1541     Al1549   1.869       .  S
C1542      O1552   1.260       .  A
C1542      O1543   1.260       .  A
O1543     Al1545   1.897       .  S
O1544      C1546   1.261       .  A
O1544     Al1545   1.907       .  S
Al1545     O1553   1.900       .  S
Al1545     O1555   1.916       .  S
Al1545     O1554   1.800       .  S
C1546      O1559   1.261       .  A
C1546      C1578   1.470       .  S
O1547      C1557   1.254       .  A
O1547     Al1549   1.857       .  S
O1548      C1561   1.263       .  A
O1548     Al1558   1.916       .  S
Al1549     O1562   1.892       .  S
Al1549     O1559   1.906       .  S
Al1549     O1554   1.784       .  S
O1550      C1557   1.261       .  A
O1550     Al1558   1.939       .  S
O1551      C1560   1.261       .  A
O1551     Al1558   1.902       .  S
O1552     Al1558   1.894       .  S
O1553      C1560   1.258       .  A
O1554     Al1558   1.807       .  S
O1555      C1556   1.261       .  A
C1560      C1938   1.467       .  S
C1561      O1562   1.259       .  A
O1563      C1578   1.261       .  A
O1563     Al1571   1.905       .  S
C1564      O1574   1.261       .  A
C1564      O1565   1.256       .  A
O1565     Al1567   1.886       .  S
O1566      C1568   1.260       .  A
O1566     Al1567   1.938       .  S
Al1567     O1575   1.905       .  S
Al1567     O1577   1.909       .  S
Al1567     O1576   1.808       .  S
C1568      O1581   1.253       .  A
O1569      C1579   1.262       .  A
O1569     Al1571   1.897       .  S
O1570      C1583   1.261       .  A
O1570     Al1580   1.934       .  S
Al1571     O1584   1.851       .  S
Al1571     O1581   1.860       .  S
Al1571     O1576   1.780       .  S
O1572      C1579   1.259       .  A
O1572     Al1580   1.912       .  S
O1573      C1582   1.256       .  A
O1573     Al1580   1.888       .  S
O1574     Al1580   1.895       .  S
O1575      C1582   1.262       .  A
O1576     Al1580   1.812       .  S
O1577      C1578   1.262       .  A
C1583      O1584   1.252       .  A
O1585      C1600   1.256       .  A
O1585     Al1593   1.876       .  S
C1586      O1596   1.261       .  A
C1586      O1587   1.259       .  A
O1587     Al1589   1.902       .  S
O1588      C1590   1.264       .  A
O1588     Al1589   1.910       .  S
Al1589     O1597   1.900       .  S
Al1589     O1599   1.946       .  S
Al1589     O1598   1.802       .  S
C1590      O1603   1.260       .  A
C1590      C1777   1.462       .  S
O1591      C1601   1.255       .  A
O1591     Al1593   1.866       .  S
O1592      C1605   1.260       .  A
O1592     Al1602   1.913       .  S
Al1593     O1606   1.891       .  S
Al1593     O1603   1.896       .  S
Al1593     O1598   1.774       .  S
O1594      C1601   1.263       .  A
O1594     Al1602   1.940       .  S
O1595      C1604   1.258       .  A
O1595     Al1602   1.890       .  S
O1596     Al1602   1.903       .  S
O1597      C1604   1.262       .  A
O1598     Al1602   1.806       .  S
O1599      C1600   1.263       .  A
C1600      C1634   1.481       .  S
C1601      C1722   1.473       .  S
C1604      C2022   1.462   1_554  S
C1605      O1606   1.262       .  A
C1605      C1667   1.458       .  S
O1607      C1622   1.259       .  A
O1607     Al1615   1.895       .  S
C1608      O1618   1.260       .  A
C1608      O1609   1.259       .  A
O1609     Al1611   1.897       .  S
O1610      C1612   1.263       .  A
O1610     Al1611   1.928       .  S
Al1611     O1619   1.903       .  S
Al1611     O1621   1.907       .  S
Al1611     O1620   1.805       .  S
C1612      O1625   1.250       .  A
C1612      C1711   1.463       .  S
O1613      C1623   1.259       .  A
O1613     Al1615   1.899       .  S
O1614      C1627   1.261       .  A
O1614     Al1624   1.917       .  S
Al1615     O1628   1.860       .  S
Al1615     O1625   1.858       .  S
Al1615     O1620   1.791       .  S
O1616      C1623   1.259       .  A
O1616     Al1624   1.896       .  S
O1617      C1626   1.256       .  A
O1617     Al1624   1.894       .  S
O1618     Al1624   1.906       .  S
O1619      C1626   1.262       .  A
O1620     Al1624   1.806       .  S
O1621      C1622   1.260       .  A
C1622      C1656   1.466       .  S
C1623      C1788   1.463       .  S
C1626      C2110   1.466   1_554  S
C1627      O1628   1.250       .  A
C1627      C1645   1.458       .  S
O1629      C1644   1.263       .  A
O1629     Al1637   1.893       .  S
C1630      O1640   1.259       .  A
C1630      O1631   1.259       .  A
C1630      C2070   1.462   1_554  S
O1631     Al1633   1.893       .  S
O1632      C1634   1.264       .  A
O1632     Al1633   1.949       .  S
Al1633     O1641   1.895       .  S
Al1633     O1643   1.907       .  S
Al1633     O1642   1.809       .  S
C1634      O1647   1.254       .  A
O1635      C1645   1.262       .  A
O1635     Al1637   1.893       .  S
O1636      C1649   1.264       .  A
O1636     Al1646   1.949       .  S
Al1637     O1650   1.869       .  S
Al1637     O1647   1.869       .  S
Al1637     O1642   1.772       .  S
O1638      C1645   1.259       .  A
O1638     Al1646   1.908       .  S
O1639      C1648   1.260       .  A
O1639     Al1646   1.894       .  S
O1640     Al1646   1.895       .  S
O1641      C1648   1.258       .  A
O1642     Al1646   1.809       .  S
O1643      C1644   1.259       .  A
C1644      C1781   1.458       .  S
C1649      O1650   1.254       .  A
C1649      C1798   1.481       .  S
O1651      C1666   1.255       .  A
O1651     Al1659   1.857       .  S
C1652      O1662   1.258       .  A
C1652      O1653   1.262       .  A
C1652      C1956   1.468   1_554  S
O1653     Al1655   1.902       .  S
O1654      C1656   1.262       .  A
O1654     Al1655   1.915       .  S
Al1655     O1663   1.893       .  S
Al1655     O1665   1.939       .  S
Al1655     O1664   1.807       .  S
C1656      O1669   1.258       .  A
O1657      C1667   1.252       .  A
O1657     Al1659   1.868       .  S
O1658      C1671   1.261       .  A
O1658     Al1668   1.906       .  S
Al1659     O1672   1.906       .  S
Al1659     O1669   1.893       .  S
Al1659     O1664   1.784       .  S
O1660      C1667   1.261       .  A
O1660     Al1668   1.916       .  S
O1661      C1670   1.260       .  A
O1661     Al1668   1.898       .  S
O1662     Al1668   1.900       .  S
O1663      C1670   1.259       .  A
O1664     Al1668   1.801       .  S
O1665      C1666   1.262       .  A
C1666      C1715   1.471       .  S
C1671      O1672   1.261       .  A
C1671      C1732   1.470       .  S
O1673      C1688   1.254       .  A
O1673     Al1681   1.860       .  S
C1674      O1684   1.259       .  A
C1674      O1675   1.261       .  A
O1675     Al1677   1.901       .  S
O1676      C1678   1.264       .  A
O1676     Al1677   1.917       .  S
Al1677     O1685   1.900       .  S
Al1677     O1687   1.930       .  S
Al1677     O1686   1.804       .  S
C1678      O1691   1.260       .  A
C1678      C1710   1.470       .  S
O1679      C1689   1.254       .  A
O1679     Al1681   1.861       .  S
O1680      C1693   1.264       .  A
O1680     Al1690   1.917       .  S
Al1681     O1694   1.901       .  S
Al1681     O1691   1.901       .  S
Al1681     O1686   1.783       .  S
O1682      C1689   1.260       .  A
O1682     Al1690   1.931       .  S
O1683      C1692   1.262       .  A
O1683     Al1690   1.903       .  S
O1684     Al1690   1.900       .  S
O1685      C1692   1.259       .  A
O1686     Al1690   1.803       .  S
O1687      C1688   1.260       .  A
C1688      C1847   1.466       .  S
C1689      C1737   1.466       .  S
C1692      C1916   1.468       .  S
C1693      O1694   1.260       .  A
C1693      C1754   1.470       .  S
O1695      C1710   1.262       .  A
O1695     Al1703   1.911       .  S
C1696      O1706   1.261       .  A
C1696      O1697   1.256       .  A
O1697     Al1699   1.886       .  S
O1698      C1700   1.261       .  A
O1698     Al1699   1.923       .  S
Al1699     O1707   1.900       .  S
Al1699     O1709   1.899       .  S
Al1699     O1708   1.805       .  S
C1700      O1713   1.250       .  A
C1700      C1843   1.465       .  S
O1701      C1711   1.261       .  A
O1701     Al1703   1.891       .  S
O1702      C1715   1.262       .  A
O1702     Al1712   1.942       .  S
Al1703     O1716   1.848       .  S
Al1703     O1713   1.868       .  S
Al1703     O1708   1.783       .  S
O1704      C1711   1.258       .  A
O1704     Al1712   1.913       .  S
O1705      C1714   1.256       .  A
O1705     Al1712   1.884       .  S
O1706     Al1712   1.894       .  S
O1707      C1714   1.260       .  A
O1708     Al1712   1.816       .  S
O1709      C1710   1.259       .  A
C1715      O1716   1.252       .  A
O1717      C1732   1.261       .  A
O1717     Al1725   1.905       .  S
C1718      O1728   1.261       .  A
C1718      O1719   1.257       .  A
O1719     Al1721   1.886       .  S
O1720      C1722   1.260       .  A
O1720     Al1721   1.939       .  S
Al1721     O1729   1.905       .  S
Al1721     O1731   1.909       .  S
Al1721     O1730   1.807       .  S
C1722      O1735   1.253       .  A
O1723      C1733   1.262       .  A
O1723     Al1725   1.897       .  S
O1724      C1737   1.261       .  A
O1724     Al1734   1.934       .  S
Al1725     O1738   1.852       .  S
Al1725     O1735   1.862       .  S
Al1725     O1730   1.780       .  S
O1726      C1733   1.259       .  A
O1726     Al1734   1.912       .  S
O1727      C1736   1.256       .  A
O1727     Al1734   1.888       .  S
O1728     Al1734   1.895       .  S
O1729      C1736   1.262       .  A
O1730     Al1734   1.812       .  S
O1731      C1732   1.262       .  A
C1733      C1744   1.465       .  S
C1737      O1738   1.252       .  A
O1739      C1754   1.262       .  A
O1739     Al1747   1.911       .  S
C1740      O1750   1.261       .  A
C1740      O1741   1.256       .  A
O1741     Al1743   1.887       .  S
O1742      C1744   1.261       .  A
O1742     Al1743   1.923       .  S
Al1743     O1751   1.899       .  S
Al1743     O1753   1.899       .  S
Al1743     O1752   1.804       .  S
C1744      O1757   1.251       .  A
O1745      C1755   1.261       .  A
O1745     Al1747   1.891       .  S
O1746      C1759   1.262       .  A
O1746     Al1756   1.943       .  S
Al1747     O1760   1.849       .  S
Al1747     O1757   1.869       .  S
Al1747     O1752   1.782       .  S
O1748      C1755   1.258       .  A
O1748     Al1756   1.913       .  S
O1749      C1758   1.257       .  A
O1749     Al1756   1.884       .  S
O1750     Al1756   1.895       .  S
O1751      C1758   1.260       .  A
O1752     Al1756   1.815       .  S
O1753      C1754   1.259       .  A
C1755      C1766   1.463       .  S
C1758      C1868   1.462       .  S
C1759      O1760   1.252       .  A
C1759      C1821   1.471       .  S
O1761      C1776   1.259       .  A
O1761     Al1769   1.894       .  S
C1762      O1772   1.261       .  A
C1762      O1763   1.258       .  A
O1763     Al1765   1.895       .  S
O1764      C1766   1.262       .  A
O1764     Al1765   1.926       .  S
Al1765     O1773   1.902       .  S
Al1765     O1775   1.906       .  S
Al1765     O1774   1.807       .  S
C1766      O1779   1.250       .  A
O1767      C1777   1.259       .  A
O1767     Al1769   1.897       .  S
O1768      C1781   1.261       .  A
O1768     Al1778   1.917       .  S
Al1769     O1782   1.859       .  S
Al1769     O1779   1.856       .  S
Al1769     O1774   1.793       .  S
O1770      C1777   1.258       .  A
O1770     Al1778   1.895       .  S
O1771      C1780   1.256       .  A
O1771     Al1778   1.893       .  S
O1772     Al1778   1.908       .  S
O1773      C1780   1.261       .  A
O1774     Al1778   1.808       .  S
O1775      C1776   1.260       .  A
C1776      C1825   1.466       .  S
C1781      O1782   1.249       .  A
O1783      C1798   1.256       .  A
O1783     Al1791   1.876       .  S
C1784      O1794   1.261       .  A
C1784      O1785   1.259       .  A
O1785     Al1787   1.902       .  S
O1786      C1788   1.264       .  A
O1786     Al1787   1.910       .  S
Al1787     O1795   1.901       .  S
Al1787     O1797   1.945       .  S
Al1787     O1796   1.802       .  S
C1788      O1801   1.260       .  A
O1789      C1799   1.255       .  A
O1789     Al1791   1.865       .  S
O1790      C1803   1.261       .  A
O1790     Al1800   1.914       .  S
Al1791     O1804   1.892       .  S
Al1791     O1801   1.897       .  S
Al1791     O1796   1.774       .  S
O1792      C1799   1.263       .  A
O1792     Al1800   1.939       .  S
O1793      C1802   1.258       .  A
O1793     Al1800   1.890       .  S
O1794     Al1800   1.904       .  S
O1795      C1802   1.262       .  A
O1796     Al1800   1.807       .  S
O1797      C1798   1.262       .  A
C1799      C1832   1.472       .  S
C1803      O1804   1.262       .  A
C1803      C1820   1.458       .  S
O1805      C1820   1.252       .  A
O1805     Al1813   1.869       .  S
C1806      O1816   1.260       .  A
C1806      O1807   1.260       .  A
C1806      C1894   1.462       .  S
O1807     Al1809   1.897       .  S
O1808      C1810   1.261       .  A
O1808     Al1809   1.907       .  S
Al1809     O1817   1.900       .  S
Al1809     O1819   1.916       .  S
Al1809     O1818   1.800       .  S
C1810      O1823   1.261       .  A
C1810      C1842   1.470       .  S
O1811      C1821   1.254       .  A
O1811     Al1813   1.857       .  S
O1812      C1825   1.263       .  A
O1812     Al1822   1.916       .  S
Al1813     O1826   1.892       .  S
Al1813     O1823   1.906       .  S
Al1813     O1818   1.784       .  S
O1814      C1821   1.261       .  A
O1814     Al1822   1.939       .  S
O1815      C1824   1.261       .  A
O1815     Al1822   1.902       .  S
O1816     Al1822   1.894       .  S
O1817      C1824   1.258       .  A
O1818     Al1822   1.807       .  S
O1819      C1820   1.261       .  A
C1825      O1826   1.259       .  A
O1827      C1842   1.261       .  A
O1827     Al1835   1.905       .  S
C1828      O1838   1.261       .  A
C1828      O1829   1.256       .  A
O1829     Al1831   1.886       .  S
O1830      C1832   1.260       .  A
O1830     Al1831   1.938       .  S
Al1831     O1839   1.905       .  S
Al1831     O1841   1.909       .  S
Al1831     O1840   1.808       .  S
C1832      O1845   1.253       .  A
O1833      C1843   1.262       .  A
O1833     Al1835   1.897       .  S
O1834      C1847   1.261       .  A
O1834     Al1844   1.934       .  S
Al1835     O1848   1.851       .  S
Al1835     O1845   1.860       .  S
Al1835     O1840   1.780       .  S
O1836      C1843   1.259       .  A
O1836     Al1844   1.912       .  S
O1837      C1846   1.256       .  A
O1837     Al1844   1.888       .  S
O1838     Al1844   1.895       .  S
O1839      C1846   1.262       .  A
O1840     Al1844   1.812       .  S
O1841      C1842   1.262       .  A
C1846      C1890   1.466       .  S
C1847      O1848   1.252       .  A
O1849      C1864   1.256       .  A
O1849     Al1857   1.876       .  S
C1850      O1860   1.261       .  A
C1850      O1851   1.259       .  A
O1851     Al1853   1.902       .  S
O1852      C1854   1.264       .  A
O1852     Al1853   1.910       .  S
Al1853     O1861   1.900       .  S
Al1853     O1863   1.946       .  S
Al1853     O1862   1.802       .  S
C1854      O1867   1.260       .  A
C1854      C2041   1.462       .  S
O1855      C1865   1.255       .  A
O1855     Al1857   1.866       .  S
O1856      C1869   1.260       .  A
O1856     Al1866   1.913       .  S
Al1857     O1870   1.891       .  S
Al1857     O1867   1.896       .  S
Al1857     O1862   1.774       .  S
O1858      C1865   1.263       .  A
O1858     Al1866   1.940       .  S
O1859      C1868   1.258       .  A
O1859     Al1866   1.890       .  S
O1860     Al1866   1.903       .  S
O1861      C1868   1.262       .  A
O1862     Al1866   1.806       .  S
O1863      C1864   1.263       .  A
C1864      C1898   1.481       .  S
C1865      C1986   1.473       .  S
C1869      O1870   1.262       .  A
C1869      C1931   1.458       .  S
O1871      C1886   1.259       .  A
O1871     Al1879   1.895       .  S
C1872      O1882   1.260       .  A
C1872      O1873   1.259       .  A
O1873     Al1875   1.897       .  S
O1874      C1876   1.263       .  A
O1874     Al1875   1.928       .  S
Al1875     O1883   1.903       .  S
Al1875     O1885   1.907       .  S
Al1875     O1884   1.805       .  S
C1876      O1889   1.250       .  A
C1876      C1975   1.463       .  S
O1877      C1887   1.259       .  A
O1877     Al1879   1.899       .  S
O1878      C1891   1.261       .  A
O1878     Al1888   1.917       .  S
Al1879     O1892   1.860       .  S
Al1879     O1889   1.858       .  S
Al1879     O1884   1.791       .  S
O1880      C1887   1.259       .  A
O1880     Al1888   1.896       .  S
O1881      C1890   1.256       .  A
O1881     Al1888   1.894       .  S
O1882     Al1888   1.906       .  S
O1883      C1890   1.262       .  A
O1884     Al1888   1.806       .  S
O1885      C1886   1.260       .  A
C1886      C1920   1.466       .  S
C1887      C2052   1.463       .  S
C1891      O1892   1.250       .  A
C1891      C1909   1.458       .  S
O1893      C1908   1.263       .  A
O1893     Al1901   1.893       .  S
C1894      O1904   1.259       .  A
C1894      O1895   1.259       .  A
O1895     Al1897   1.893       .  S
O1896      C1898   1.264       .  A
O1896     Al1897   1.949       .  S
Al1897     O1905   1.895       .  S
Al1897     O1907   1.907       .  S
Al1897     O1906   1.809       .  S
C1898      O1911   1.254       .  A
O1899      C1909   1.262       .  A
O1899     Al1901   1.893       .  S
O1900      C1913   1.264       .  A
O1900     Al1910   1.949       .  S
Al1901     O1914   1.869       .  S
Al1901     O1911   1.869       .  S
Al1901     O1906   1.772       .  S
O1902      C1909   1.259       .  A
O1902     Al1910   1.908       .  S
O1903      C1912   1.260       .  A
O1903     Al1910   1.894       .  S
O1904     Al1910   1.895       .  S
O1905      C1912   1.258       .  A
O1906     Al1910   1.809       .  S
O1907      C1908   1.259       .  A
C1908      C2045   1.458       .  S
C1913      O1914   1.254       .  A
C1913      C2062   1.481       .  S
O1915      C1930   1.255       .  A
O1915     Al1923   1.857       .  S
C1916      O1926   1.258       .  A
C1916      O1917   1.262       .  A
O1917     Al1919   1.902       .  S
O1918      C1920   1.262       .  A
O1918     Al1919   1.915       .  S
Al1919     O1927   1.893       .  S
Al1919     O1929   1.939       .  S
Al1919     O1928   1.807       .  S
C1920      O1933   1.258       .  A
O1921      C1931   1.252       .  A
O1921     Al1923   1.868       .  S
O1922      C1935   1.261       .  A
O1922     Al1932   1.906       .  S
Al1923     O1936   1.906       .  S
Al1923     O1933   1.893       .  S
Al1923     O1928   1.784       .  S
O1924      C1931   1.261       .  A
O1924     Al1932   1.916       .  S
O1925      C1934   1.260       .  A
O1925     Al1932   1.898       .  S
O1926     Al1932   1.900       .  S
O1927      C1934   1.259       .  A
O1928     Al1932   1.801       .  S
O1929      C1930   1.262       .  A
C1930      C1979   1.471       .  S
C1935      O1936   1.261       .  A
C1935      C1996   1.470       .  S
O1937      C1952   1.254       .  A
O1937     Al1945   1.860       .  S
C1938      O1948   1.259       .  A
C1938      O1939   1.261       .  A
O1939     Al1941   1.901       .  S
O1940      C1942   1.264       .  A
O1940     Al1941   1.917       .  S
Al1941     O1949   1.900       .  S
Al1941     O1951   1.930       .  S
Al1941     O1950   1.804       .  S
C1942      O1955   1.260       .  A
C1942      C1974   1.470       .  S
O1943      C1953   1.254       .  A
O1943     Al1945   1.861       .  S
O1944      C1957   1.264       .  A
O1944     Al1954   1.917       .  S
Al1945     O1958   1.901       .  S
Al1945     O1955   1.901       .  S
Al1945     O1950   1.783       .  S
O1946      C1953   1.260       .  A
O1946     Al1954   1.931       .  S
O1947      C1956   1.262       .  A
O1947     Al1954   1.903       .  S
O1948     Al1954   1.900       .  S
O1949      C1956   1.259       .  A
O1950     Al1954   1.803       .  S
O1951      C1952   1.260       .  A
C1952      C2111   1.466       .  S
C1953      C2001   1.466       .  S
C1957      O1958   1.260       .  A
C1957      C2018   1.470       .  S
O1959      C1974   1.262       .  A
O1959     Al1967   1.911       .  S
C1960      O1970   1.261       .  A
C1960      O1961   1.256       .  A
O1961     Al1963   1.886       .  S
O1962      C1964   1.261       .  A
O1962     Al1963   1.923       .  S
Al1963     O1971   1.900       .  S
Al1963     O1973   1.899       .  S
Al1963     O1972   1.805       .  S
C1964      O1977   1.250       .  A
C1964      C2107   1.465       .  S
O1965      C1975   1.261       .  A
O1965     Al1967   1.891       .  S
O1966      C1979   1.262       .  A
O1966     Al1976   1.942       .  S
Al1967     O1980   1.848       .  S
Al1967     O1977   1.868       .  S
Al1967     O1972   1.783       .  S
O1968      C1975   1.258       .  A
O1968     Al1976   1.913       .  S
O1969      C1978   1.256       .  A
O1969     Al1976   1.884       .  S
O1970     Al1976   1.894       .  S
O1971      C1978   1.260       .  A
O1972     Al1976   1.816       .  S
O1973      C1974   1.259       .  A
C1979      O1980   1.252       .  A
O1981      C1996   1.261       .  A
O1981     Al1989   1.905       .  S
C1982      O1992   1.261       .  A
C1982      O1983   1.257       .  A
O1983     Al1985   1.886       .  S
O1984      C1986   1.260       .  A
O1984     Al1985   1.939       .  S
Al1985     O1993   1.905       .  S
Al1985     O1995   1.909       .  S
Al1985     O1994   1.807       .  S
C1986      O1999   1.253       .  A
O1987      C1997   1.262       .  A
O1987     Al1989   1.897       .  S
O1988      C2001   1.261       .  A
O1988     Al1998   1.934       .  S
Al1989     O2002   1.852       .  S
Al1989     O1999   1.862       .  S
Al1989     O1994   1.780       .  S
O1990      C1997   1.259       .  A
O1990     Al1998   1.912       .  S
O1991      C2000   1.256       .  A
O1991     Al1998   1.888       .  S
O1992     Al1998   1.895       .  S
O1993      C2000   1.262       .  A
O1994     Al1998   1.812       .  S
O1995      C1996   1.262       .  A
C1997      C2008   1.465       .  S
C2001      O2002   1.252       .  A
O2003      C2018   1.262       .  A
O2003     Al2011   1.911       .  S
C2004      O2014   1.261       .  A
C2004      O2005   1.256       .  A
O2005     Al2007   1.887       .  S
O2006      C2008   1.261       .  A
O2006     Al2007   1.923       .  S
Al2007     O2015   1.899       .  S
Al2007     O2017   1.899       .  S
Al2007     O2016   1.804       .  S
C2008      O2021   1.251       .  A
O2009      C2019   1.261       .  A
O2009     Al2011   1.891       .  S
O2010      C2023   1.262       .  A
O2010     Al2020   1.943       .  S
Al2011     O2024   1.849       .  S
Al2011     O2021   1.869       .  S
Al2011     O2016   1.782       .  S
O2012      C2019   1.258       .  A
O2012     Al2020   1.913       .  S
O2013      C2022   1.257       .  A
O2013     Al2020   1.884       .  S
O2014     Al2020   1.895       .  S
O2015      C2022   1.260       .  A
O2016     Al2020   1.815       .  S
O2017      C2018   1.259       .  A
C2019      C2030   1.463       .  S
C2023      O2024   1.252       .  A
C2023      C2085   1.471       .  S
O2025      C2040   1.259       .  A
O2025     Al2033   1.894       .  S
C2026      O2036   1.261       .  A
C2026      O2027   1.258       .  A
O2027     Al2029   1.895       .  S
O2028      C2030   1.262       .  A
O2028     Al2029   1.926       .  S
Al2029     O2037   1.902       .  S
Al2029     O2039   1.906       .  S
Al2029     O2038   1.807       .  S
C2030      O2043   1.250       .  A
O2031      C2041   1.259       .  A
O2031     Al2033   1.897       .  S
O2032      C2045   1.261       .  A
O2032     Al2042   1.917       .  S
Al2033     O2046   1.859       .  S
Al2033     O2043   1.856       .  S
Al2033     O2038   1.793       .  S
O2034      C2041   1.258       .  A
O2034     Al2042   1.895       .  S
O2035      C2044   1.256       .  A
O2035     Al2042   1.893       .  S
O2036     Al2042   1.908       .  S
O2037      C2044   1.261       .  A
O2038     Al2042   1.808       .  S
O2039      C2040   1.260       .  A
C2040      C2089   1.466       .  S
C2045      O2046   1.249       .  A
O2047      C2062   1.256       .  A
O2047     Al2055   1.876       .  S
C2048      O2058   1.261       .  A
C2048      O2049   1.259       .  A
O2049     Al2051   1.902       .  S
O2050      C2052   1.264       .  A
O2050     Al2051   1.910       .  S
Al2051     O2059   1.901       .  S
Al2051     O2061   1.945       .  S
Al2051     O2060   1.802       .  S
C2052      O2065   1.260       .  A
O2053      C2063   1.255       .  A
O2053     Al2055   1.865       .  S
O2054      C2067   1.261       .  A
O2054     Al2064   1.914       .  S
Al2055     O2068   1.892       .  S
Al2055     O2065   1.897       .  S
Al2055     O2060   1.774       .  S
O2056      C2063   1.263       .  A
O2056     Al2064   1.939       .  S
O2057      C2066   1.258       .  A
O2057     Al2064   1.890       .  S
O2058     Al2064   1.904       .  S
O2059      C2066   1.262       .  A
O2060     Al2064   1.807       .  S
O2061      C2062   1.262       .  A
C2063      C2096   1.472       .  S
C2067      O2068   1.262       .  A
C2067      C2084   1.458       .  S
O2069      C2084   1.252       .  A
O2069     Al2077   1.869       .  S
C2070      O2080   1.260       .  A
C2070      O2071   1.260       .  A
O2071     Al2073   1.897       .  S
O2072      C2074   1.261       .  A
O2072     Al2073   1.907       .  S
Al2073     O2081   1.900       .  S
Al2073     O2083   1.916       .  S
Al2073     O2082   1.800       .  S
C2074      O2087   1.261       .  A
C2074      C2106   1.470       .  S
O2075      C2085   1.254       .  A
O2075     Al2077   1.857       .  S
O2076      C2089   1.263       .  A
O2076     Al2086   1.916       .  S
Al2077     O2090   1.892       .  S
Al2077     O2087   1.906       .  S
Al2077     O2082   1.784       .  S
O2078      C2085   1.261       .  A
O2078     Al2086   1.939       .  S
O2079      C2088   1.261       .  A
O2079     Al2086   1.902       .  S
O2080     Al2086   1.894       .  S
O2081      C2088   1.258       .  A
O2082     Al2086   1.807       .  S
O2083      C2084   1.261       .  A
C2089      O2090   1.259       .  A
O2091      C2106   1.261       .  A
O2091     Al2099   1.905       .  S
C2092      O2102   1.261       .  A
C2092      O2093   1.256       .  A
O2093     Al2095   1.886       .  S
O2094      C2096   1.260       .  A
O2094     Al2095   1.938       .  S
Al2095     O2103   1.905       .  S
Al2095     O2105   1.909       .  S
Al2095     O2104   1.808       .  S
C2096      O2109   1.253       .  A
O2097      C2107   1.262       .  A
O2097     Al2099   1.897       .  S
O2098      C2111   1.261       .  A
O2098     Al2108   1.934       .  S
Al2099     O2112   1.851       .  S
Al2099     O2109   1.860       .  S
Al2099     O2104   1.780       .  S
O2100      C2107   1.259       .  A
O2100     Al2108   1.912       .  S
O2101      C2110   1.256       .  A
O2101     Al2108   1.888       .  S
O2102     Al2108   1.895       .  S
O2103      C2110   1.262       .  A
O2104     Al2108   1.812       .  S
O2105      C2106   1.262       .  A
C2111      O2112   1.252       .  A
