geometry optimzed in LAMMPS
_audit_creation_date              2020-12-01 
_audit_creation_method            'lammps2cif' 
_symmetry_space_group_name_H-M    'P1' 
_symmetry_Int_Tables_number       1 
_symmetry_cell_setting            triclinic 
loop_ 
_symmetry_equiv_pos_as_xyz 
  x,y,z 
_cell_length_a                    47.44388833 
_cell_length_b                    33.64903482838655 
_cell_length_c                    34.12954598040687 
_cell_angle_alpha                 90.58623586378368 
_cell_angle_beta                  90.00351600656506 
_cell_angle_gamma                 89.921803075104 
loop_ 
_atom_site_label 
_atom_site_type_symbol 
_atom_site_fract_x 
_atom_site_fract_y 
_atom_site_fract_z 
_atom_site_charge 
O1          O  0.17299989  0.26986228  0.02654328    -0.88100
C2          C  0.09608990  0.30181453  0.06693639     0.87900
Mg3        Mg  0.18668154  0.28197836  0.96806694     1.58100
O4          O  0.10488577  0.20032434  0.04671714    -0.87800
O5          O  0.16849411  0.21925230  0.06589284    -0.75200
C6          C  0.07981206  0.22522677  0.85464688     0.93000
O7          O  0.13528367  0.34443083  0.00327459    -0.75000
O8          O  0.10029514  0.24967492  0.85346920    -0.82500
Mg9        Mg  0.15538016  0.31884643  0.05911537     1.58000
C10         C  0.04636476  0.13739345  0.98466371     0.92900
O11         O  0.17613237  0.29880956  0.11747129    -0.80800
H12         H  0.12638832  0.14995705  0.05486146    -0.06100
C13         C  0.06756756  0.26410093  0.95954944     0.87800
O14         O  0.17642194  0.21855085  0.94809024    -0.75300
O15         O  0.11886022  0.28405211  0.06935232    -0.88000
O16         O  0.04796028  0.15954533  0.01507520    -0.80800
C17         C  0.05783604  0.22236934  0.12699913     0.93000
C18         C  0.17038986  0.27789167  0.14751683     0.92900
Mg19       Mg  0.09598037  0.18522327  0.94240933     1.58000
O20         O  0.07518099  0.20438157  0.88495039    -0.80800
O21         O  0.11603733  0.15994020  0.99814391    -0.75000
O22         O  0.08368705  0.23219978  0.13079740    -0.80800
O23         O  0.19268212  0.35856830  0.04741749    -0.82500
O24         O  0.16592478  0.27275242  0.86981466    -0.80900
C25         C  0.11581261  0.16919311  0.03436239     0.87300
O26         O  0.13181911  0.22052752  0.93188434    -0.88000
O27         O  0.07750425  0.23388111  0.97458087    -0.88100
O28         O  0.08155339  0.28465398  0.93536484    -0.75200
Mg29       Mg  0.12542728  0.22742638  0.09591837     1.58000
O30         O  0.04765820  0.21146232  0.09411117    -0.82500
H31         H  0.20343914  0.22929640  0.03313480    -0.06300
O32         O  0.14518715  0.30364406  0.95444256    -0.87800
H33         H  0.12413613  0.35449878  0.94682885    -0.06100
H34         H  0.15545932  0.17189526  0.92390531    -0.06300
C35         C  0.13475787  0.33502387  0.96706354     0.87300
C36         C  0.18266400  0.23948550  0.04161772     0.87900
C37         C  0.15453368  0.20257268  0.93354121     0.87900
H38         H  0.04672412  0.27394418  0.96810673    -0.06300
O39         O  0.07427034  0.28532161  0.05263162    -0.75300
Mg40       Mg  0.12447673  0.27694563  0.90509468     1.58000
H41         H  0.09499020  0.33267127  0.07593733    -0.06300
C42         C  0.20405372  0.36666277  0.01470480     0.92900
O43         O  0.20218582  0.29246548  0.90652860    -0.82500
C44         C  0.19183006  0.28221575  0.87355673     0.93000
O45         O  0.14929019  0.25450701  0.14755700    -0.82500
Mg46       Mg  0.06343144  0.22181397  0.03267357     1.58200
O47         O  0.20127413  0.34421240  0.98477797    -0.80800
O48         O  0.05938948  0.14520573  0.95322003    -0.82500
O49         O  0.42176992  0.77532623  0.02227500    -0.88100
C50         C  0.34452038  0.79823592  0.06902554     0.87900
Mg51       Mg  0.43386833  0.78918557  0.96319735     1.58100
O52         O  0.35909787  0.69828537  0.04769684    -0.87800
O53         O  0.42158425  0.72520716  0.06282115    -0.75200
C54         C  0.32703572  0.72098660  0.85576864     0.93000
O55         O  0.37879461  0.84424521  0.00101328    -0.75000
O56         O  0.34701454  0.74615561  0.85294201    -0.82500
Mg57       Mg  0.40198003  0.82191623  0.05585866     1.58000
C58         C  0.30315548  0.62914057  0.98888684     0.92900
O59         O  0.42582379  0.80483148  0.11221390    -0.80800
H60         H  0.38383468  0.65056423  0.05356973    -0.06100
C61         C  0.31655821  0.75853695  0.96173695     0.87800
O62         O  0.42679565  0.72463587  0.94358745    -0.75300
O63         O  0.36823054  0.78298486  0.06920084    -0.88000
O64         O  0.30510947  0.65168050  0.01887480    -0.80800
C65         C  0.31296328  0.71261342  0.13094115     0.93000
C66         C  0.42311359  0.78381001  0.14289306     0.92900
Mg67       Mg  0.34777101  0.68267280  0.94290311     1.58000
O68         O  0.32404759  0.70013733  0.88650100    -0.80800
O69         O  0.37083763  0.65979808  0.99774185    -0.75000
O70         O  0.33811839  0.72602050  0.13422289    -0.80800
O71         O  0.43607822  0.86610065  0.04242544    -0.82500
O72         O  0.41225861  0.77698076  0.86508224    -0.80900
C73         C  0.37142219  0.66871401  0.03409290     0.87300
O74         O  0.38178725  0.72128881  0.92999253    -0.88000
O75         O  0.32833175  0.72952610  0.97658951    -0.88100
O76         O  0.32866185  0.77962231  0.93601356    -0.75200
Mg77       Mg  0.37924965  0.72773585  0.09595362     1.58000
O78         O  0.30290445  0.70220937  0.09780292    -0.82500
H79         H  0.45464186  0.73848091  0.02751956    -0.06300
O80         O  0.39115139  0.80612608  0.95102881    -0.87800
H81         H  0.36597257  0.85337161  0.94511310    -0.06100
H82         H  0.40790996  0.67540810  0.92104208    -0.06300
C83         C  0.37850471  0.83543784  0.96463367     0.87300
C84         C  0.43364270  0.74643045  0.03718120     0.87900
C85         C  0.40548163  0.70596970  0.93053964     0.87900
H86         H  0.29561681  0.76667630  0.97147662    -0.06300
O87         O  0.32322368  0.77968644  0.05580667    -0.75300
Mg88       Mg  0.37105472  0.77648937  0.90297251     1.58000
H89         H  0.34207189  0.82866087  0.07893917    -0.06300
C90         C  0.44674967  0.87574062  0.00977001     0.92900
O91         O  0.44770506  0.80140953  0.90063969    -0.82500
C92         C  0.43755288  0.78991886  0.86786050     0.93000
O93         O  0.40334960  0.75830470  0.14592715    -0.82500
Mg94       Mg  0.31638064  0.71531900  0.03562431     1.58200
O95         O  0.44510531  0.85311198  0.97973496    -0.80800
O96         O  0.31327510  0.63889621  0.95591592    -0.82500
O97         O  0.42338289  0.23251471  0.47600483    -0.88100
C98         C  0.34691179  0.20120866  0.43275410     0.87900
Mg99       Mg  0.43733965  0.21736675  0.53372129     1.58100
O100        O  0.35501655  0.30190413  0.45682368    -0.87800
O101        O  0.41853546  0.28426730  0.43803848    -0.75200
C102        C  0.32951404  0.26716573  0.64757896     0.93000
O103        O  0.38651553  0.15559455  0.49507995    -0.75000
O104        O  0.35007632  0.24275902  0.64775552    -0.82500
Mg105      Mg  0.40649295  0.18470956  0.44106586     1.58000
C106        C  0.29670736  0.36224343  0.52049614     0.92900
O107        O  0.42739208  0.20858800  0.38545368    -0.80800
H108        H  0.37690418  0.35228866  0.45153802    -0.06100
C109        C  0.31815161  0.23359393  0.54075062     0.87800
O110        O  0.42664939  0.27946083  0.55718214    -0.75300
O111        O  0.36955566  0.21932487  0.43177983    -0.88000
O112        O  0.29866000  0.34072764  0.48975348    -0.80800
C113        C  0.30799386  0.28403351  0.37534278     0.93000
C114        C  0.42220280  0.23032386  0.35594824     0.92900
Mg115      Mg  0.34589400  0.31199581  0.56201638     1.58000
O116        O  0.32493421  0.28970831  0.61839433    -0.80800
O117        O  0.36627680  0.33949005  0.50756425    -0.75000
O118        O  0.33363529  0.27304333  0.37075253    -0.80800
O119        O  0.44439720  0.14501429  0.45045678    -0.82500
O120        O  0.41603453  0.22021712  0.63205552    -0.80900
C121        C  0.36610322  0.33215883  0.47091405     0.87300
O122        O  0.38184819  0.27613870  0.57173456    -0.88000
O123        O  0.32784176  0.26473174  0.52734692    -0.88100
O124        O  0.33218572  0.21204648  0.56408998    -0.75200
Mg125      Mg  0.37567144  0.27684548  0.40678289     1.58000
O126        O  0.29809463  0.29332833  0.40884460    -0.82500
H127        H  0.45326104  0.27409655  0.47130677    -0.06300
O128        O  0.39604073  0.19422369  0.54566412    -0.87800
H129        H  0.37571458  0.14254679  0.55101477    -0.06100
H130        H  0.40501124  0.32438820  0.58348456    -0.06300
C131        C  0.38601690  0.16320929  0.53167011     0.87300
C132        C  0.43271582  0.26366657  0.46211062     0.87900
C133        C  0.40444340  0.29436493  0.57194286     0.87900
H134        H  0.29747612  0.22383258  0.53143321    -0.06300
O135        O  0.32477404  0.21690791  0.44704609    -0.75300
Mg136      Mg  0.37477702  0.21826318  0.59560594     1.58000
H137        H  0.34615927  0.17077862  0.42233560    -0.06300
C138        C  0.45546889  0.13529161  0.48287852     0.92900
O139        O  0.45275380  0.20340291  0.59481651    -0.82500
C140        C  0.44205409  0.21115055  0.62824870     0.93000
O141        O  0.40027103  0.25220427  0.35454672    -0.82500
Mg142      Mg  0.31381594  0.27951242  0.46974919     1.58200
O143        O  0.45236300  0.15642648  0.51367658    -0.80800
O144        O  0.30922071  0.35343759  0.55217032    -0.82500
O145        O  0.17146680  0.72434991  0.47442843    -0.88100
C146        C  0.09410433  0.70111968  0.42999027     0.87900
Mg147      Mg  0.18393801  0.71148975  0.53308120     1.58100
O148        O  0.10838333  0.80139216  0.45061020    -0.87800
O149        O  0.17105704  0.77462094  0.43419088    -0.75200
C150        C  0.07822100  0.78003278  0.64332708     0.93000
O151        O  0.12893113  0.65557223  0.49742520    -0.75000
O152        O  0.09844224  0.75511401  0.64559140    -0.82500
Mg153      Mg  0.15157044  0.67728511  0.44191022     1.58000
C154        C  0.05152023  0.87022025  0.50967659     0.92900
O155        O  0.17481063  0.69401673  0.38519124    -0.80800
H156        H  0.13260995  0.84940960  0.44387757    -0.06100
C157        C  0.06662226  0.74186534  0.53770991     0.87800
O158        O  0.17673996  0.77625179  0.55198704    -0.75300
O159        O  0.11777529  0.71636150  0.42901185    -0.88000
O160        O  0.05344014  0.84773090  0.47962942    -0.80800
C161        C  0.06209686  0.78646353  0.36805226     0.93000
C162        C  0.17216127  0.71525030  0.35465607     0.92900
Mg163      Mg  0.09759232  0.81793710  0.55532393     1.58000
O164        O  0.07433320  0.80054023  0.61246714    -0.80800
O165        O  0.12005478  0.84064906  0.49996910    -0.75000
O166        O  0.08731891  0.77335979  0.36464521    -0.80800
O167        O  0.18590698  0.63291403  0.45514190    -0.82500
O168        O  0.16370465  0.72367454  0.63227026    -0.80900
C169        C  0.12050514  0.83130802  0.46371470     0.87300
O170        O  0.13207117  0.77971758  0.56784843    -0.88000
O171        O  0.07813662  0.77072404  0.52231552    -0.88100
O172        O  0.07911761  0.72105779  0.56332140    -0.75200
Mg173      Mg  0.12849065  0.77175255  0.40211181     1.58000
O174        O  0.05193096  0.79658972  0.40120766    -0.82500
H175        H  0.20448573  0.76068307  0.46855600    -0.06300
O176        O  0.14145765  0.69464028  0.54656026    -0.87800
H177        H  0.11657455  0.64736146  0.55367235    -0.06100
H178        H  0.15825753  0.82577438  0.57467491    -0.06300
C179        C  0.12885178  0.66502992  0.53365322     0.87300
C180        C  0.18334263  0.75306418  0.45932549     0.87900
C181        C  0.15569855  0.79504804  0.56583950     0.87900
H182        H  0.04557145  0.73363900  0.52858713    -0.06300
O183        O  0.07294637  0.71973912  0.44363883    -0.75300
Mg184      Mg  0.12195514  0.72445138  0.59518852     1.58000
H185        H  0.09160224  0.67058226  0.42048358    -0.06300
C186        C  0.19689631  0.62404471  0.48784543     0.92900
O187        O  0.19834463  0.70011250  0.59474660    -0.82500
C188        C  0.18889609  0.71049135  0.62815905     0.93000
O189        O  0.15250564  0.74105719  0.35181071    -0.82500
Mg190      Mg  0.06571325  0.78416188  0.46329397     1.58200
O191        O  0.19538072  0.64741714  0.51733317    -0.80800
O192        O  0.06273776  0.86126738  0.54222590    -0.82500
C193        C  0.48444106  0.04192443  0.52766859    -0.01800
C194        C  0.49764927  0.02309883  0.49552744     0.06800
C195        C  0.99764200  0.04167389  0.45854435    -0.07700
C196        C  0.48446558  0.07849154  0.45384545     0.04300
C197        C  0.47118777  0.09745711  0.48610887    -0.15000
C198        C  0.47161765  0.07884466  0.52281754    -0.08300
C199        C  0.01177062  0.98416163  0.49915863     0.05200
C200        C  0.50055688  0.95129463  0.47880396    -0.09400
C201        C  0.01302889  0.91382203  0.48185651     0.00200
C202        C  0.03677633  0.90865833  0.50632908     0.00100
C203        C  0.04769559  0.94151239  0.52694216    -0.13000
C204        C  0.03565255  0.97914849  0.52316288     0.00500
C205        C  0.50039634  0.88093530  0.46058214     0.39800
C206        C  0.04867949  0.01238696  0.54319410     0.36500
C207        C  0.48298372  0.02344043  0.56563903     0.36200
C208        C  0.98573367  0.09656657  0.41536383     0.36900
N209        N  0.49033498  0.85473304  0.44339858    -0.43900
N210        N  0.05906329  0.03905257  0.55924885    -0.44300
N211        N  0.98679782  0.11078249  0.38466419    -0.41700
N212        N  0.48187338  0.00876125  0.59611521    -0.43100
H213        H  0.46117732  0.09263337  0.54776100     0.13100
H214        H  0.00786814  0.02719043  0.43380574     0.09600
H215        H  0.48217400  0.95517527  0.46032037     0.10600
H216        H  0.06623226  0.93802397  0.54520305     0.16400
C217        C  0.27798348  0.47048137  0.53258547    -0.01800
C218        C  0.25258469  0.47302284  0.51125590     0.06800
C219        C  0.24124906  0.43865890  0.49386925    -0.07700
C220        C  0.25490120  0.40200693  0.49727120     0.04300
C221        C  0.28027716  0.39939436  0.51872741    -0.15000
C222        C  0.29135597  0.43370682  0.53665204    -0.08300
C223        C  0.23795542  0.51142055  0.50558324     0.05200
C224        C  0.23502110  0.52599744  0.46747304    -0.09400
C225        C  0.22174581  0.56244026  0.46064668     0.00200
C226        C  0.21128805  0.58521368  0.49263921     0.00100
C227        C  0.21398167  0.57005012  0.53074591    -0.13000
C228        C  0.22687250  0.53340208  0.53736495     0.00500
C229        C  0.21967842  0.57560946  0.42060721     0.39800
C230        C  0.22778398  0.51849960  0.57688833     0.36500
C231        C  0.29139101  0.50544708  0.54889282     0.36200
C232        C  0.24219417  0.36747577  0.47907466     0.36900
N233        N  0.21799332  0.58577317  0.38839580    -0.43900
N234        N  0.22855676  0.50659816  0.60856324    -0.44300
N235        N  0.23209102  0.33974480  0.46450664    -0.41700
N236        N  0.30205019  0.53354424  0.56190106    -0.43100
H237        H  0.31113021  0.43208706  0.55251797     0.13100
H238        H  0.22172438  0.44057276  0.47745268     0.09600
H239        H  0.24338114  0.50890317  0.44296436     0.10600
H240        H  0.20550530  0.58651108  0.55557503     0.16400
C241        C  0.49823635  0.81939041  0.80122756    -0.01800
C242        C  0.49527671  0.79294292  0.76920441     0.06800
C243        C  0.47228715  0.76671330  0.76855688    -0.07700
C244        C  0.45282581  0.76573722  0.79962334     0.04300
C245        C  0.45615759  0.79151987  0.83242585    -0.15000
C246        C  0.47890302  0.81844189  0.83234316    -0.08300
C247        C  0.01669190  0.79104539  0.73701875     0.05200
C248        C  0.04386846  0.77676830  0.74513934    -0.09400
C249        C  0.06435390  0.77329398  0.71555516     0.00200
C250        C  0.05790674  0.78467351  0.67666921     0.00100
C251        C  0.03072810  0.79970124  0.66894265    -0.13000
C252        C  0.01021300  0.80262256  0.69848399     0.00500
C253        C  0.09180121  0.75834494  0.72629775     0.39800
C254        C  0.48260315  0.81768954  0.68852297     0.36500
C255        C  0.02092901  0.84802356  0.80259507     0.36200
C256        C  0.43058191  0.73654933  0.79774334     0.36900
N257        N  0.11375844  0.74625562  0.73497901    -0.43900
N258        N  0.46051418  0.82976333  0.68050935    -0.44300
N259        N  0.41280798  0.71306144  0.79616787    -0.41700
N260        N  0.03899875  0.87108212  0.80353524    -0.43100
H261        H  0.48173062  0.83884310  0.85682975     0.13100
H262        H  0.46995049  0.74618350  0.74406418     0.09600
H263        H  0.04898945  0.76784325  0.77475356     0.10600
H264        H  0.02517345  0.80846485  0.63944218     0.16400
C265        C  0.00170980  0.82041145  0.30342046    -0.01800
C266        C  0.00416570  0.79496593  0.27054916     0.06800
C267        C  0.02711764  0.76869025  0.26825764    -0.07700
C268        C  0.04679603  0.76612592  0.29886264     0.04300
C269        C  0.04357466  0.79015736  0.33289654    -0.15000
C270        C  0.02111662  0.81761283  0.33424021    -0.08300
C271        C  0.48276280  0.79394015  0.23864557     0.05200
C272        C  0.49054623  0.80578510  0.20094582    -0.09400
C273        C  0.47152026  0.80327012  0.16955344     0.00200
C274        C  0.44376734  0.78879753  0.17564325     0.00100
C275        C  0.43607067  0.77712549  0.21365224    -0.13000
C276        C  0.45524881  0.77944657  0.24490193     0.00500
C277        C  0.48183254  0.81350458  0.13114156     0.39800
C278        C  0.44661770  0.76523529  0.28282609     0.36500
C279        C  0.97965543  0.84994979  0.30594031     0.36200
C280        C  0.06925932  0.73736638  0.29502714     0.36900
N281        N  0.49024224  0.82145760  0.10037236    -0.43900
N282        N  0.43979841  0.75380140  0.31324643    -0.44300
N283        N  0.08726862  0.71432893  0.29180152    -0.41700
N284        N  0.96206632  0.87374792  0.30793688    -0.43100
H285        H  0.01860979  0.83701976  0.35957424     0.13100
H286        H  0.52915525  0.74864921  0.24305700     0.09600
H287        H  0.01181377  0.81653830  0.19590673     0.10600
H288        H  0.41507804  0.76567726  0.21897170     0.16400
C289        C  0.29450326  0.72974329  0.75420348    -0.01800
C290        C  0.26760869  0.71268996  0.75931637     0.06800
C291        C  0.26061480  0.69690849  0.79587874    -0.07700
C292        C  0.27959878  0.69849923  0.82738355     0.04300
C293        C  0.30651499  0.71633996  0.82268543    -0.15000
C294        C  0.31353366  0.73157834  0.78566197    -0.08300
C295        C  0.24655105  0.71088104  0.72685226     0.05200
C296        C  0.25249927  0.68768446  0.69356265    -0.09400
C297        C  0.23368908  0.68579778  0.66191387     0.00200
C298        C  0.20824324  0.70820362  0.66276602     0.00100
C299        C  0.20194625  0.73034435  0.69689688    -0.13000
C300        C  0.22070478  0.73165621  0.72875083     0.00500
C301        C  0.24103079  0.65975185  0.62955161     0.39800
C302        C  0.21331588  0.75538054  0.76270966     0.36500
C303        C  0.30281252  0.74649024  0.71717882     0.36200
C304        C  0.27023535  0.68254891  0.86428708     0.36900
N305        N  0.24697831  0.63872995  0.60378715    -0.43900
N306        N  0.20738787  0.77421508  0.79005379    -0.44300
N307        N  0.26257468  0.66970845  0.89375554    -0.41700
N308        N  0.30951428  0.75985146  0.68749618    -0.43100
H309        H  0.33395749  0.74522054  0.78118655     0.13100
H310        H  0.24006916  0.68343145  0.79986450     0.09600
H311        H  0.27198233  0.67079496  0.69239373     0.10600
H312        H  0.18259369  0.74746001  0.69847615     0.16400
C313        C  0.25198025  0.67935625  0.19499209    -0.01800
C314        C  0.25403583  0.70510528  0.22768352     0.06800
C315        C  0.27705458  0.73120325  0.23022978    -0.07700
C316        C  0.29713455  0.73331866  0.20002406     0.04300
C317        C  0.29425739  0.70907400  0.16606301    -0.15000
C318        C  0.27175139  0.68175586  0.16455101    -0.08300
C319        C  0.23233959  0.70571793  0.25937122     0.05200
C320        C  0.24006402  0.69429366  0.29724924    -0.09400
C321        C  0.22079145  0.69629965  0.32839543     0.00200
C322        C  0.19291403  0.71027485  0.32200581     0.00100
C323        C  0.18522367  0.72142985  0.28384901    -0.13000
C324        C  0.20455213  0.71919673  0.25273399     0.00500
C325        C  0.23086699  0.68565789  0.36684091     0.39800
C326        C  0.19563375  0.73213351  0.21448224     0.36500
C327        C  0.22999495  0.64980940  0.19233910     0.36200
C328        C  0.31972037  0.76173788  0.20425058     0.36900
N329        N  0.23901420  0.67721702  0.39762642    -0.43900
N330        N  0.18845506  0.74239508  0.18379565    -0.44300
N331        N  0.33782790  0.78449501  0.20787368    -0.41700
N332        N  0.21243136  0.62604416  0.19030646    -0.43100
H333        H  0.26948097  0.66213005  0.13934871     0.13100
H334        H  0.27898184  0.75068364  0.25560352     0.09600
H335        H  0.26143389  0.68419555  0.30258863     0.10600
H336        H  0.16407167  0.73224807  0.27828396     0.16400
C337        C  0.50525178  0.18749921  0.69216506    -0.01800
C338        C  0.49966355  0.20981331  0.72646653     0.06800
C339        C  0.47439103  0.23134535  0.72922714    -0.07700
C340        C  0.45504147  0.23171394  0.69816926     0.04300
C341        C  0.46077141  0.20986573  0.66333784    -0.15000
C342        C  0.48590499  0.18760756  0.66114889    -0.08300
C343        C  0.02028518  0.21260724  0.75910273     0.05200
C344        C  0.04683228  0.22952137  0.75216955    -0.09400
C345        C  0.06671618  0.23377201  0.78236707     0.00200
C346        C  0.06013513  0.22090747  0.82070177     0.00100
C347        C  0.03350560  0.20364832  0.82727833    -0.13000
C348        C  0.01370101  0.19956691  0.79710024     0.00500
C349        C  0.09368576  0.25089226  0.77270668     0.39800
C350        C  0.48748480  0.17965383  0.80529770     0.36500
C351        C  0.03040064  0.16375462  0.68840268     0.36200
C352        C  0.43045909  0.25675715  0.70220749     0.36900
N353        N  0.11523098  0.26469042  0.76467823    -0.43900
N354        N  0.46616596  0.16455251  0.81212177    -0.44300
N355        N  0.41090210  0.27712101  0.70542843    -0.41700
N356        N  0.05071044  0.14488906  0.68534826    -0.43100
H357        H  0.49064637  0.17037985  0.63493210     0.13100
H358        H  0.47015583  0.24890523  0.75541195     0.09600
H359        H  0.05194792  0.23976993  0.72298869     0.10600
H360        H  0.02785192  0.19363272  0.85633602     0.16400
C361        C  0.45092627  0.23906412  0.25257684    -0.01800
C362        C  0.47944264  0.22819523  0.25752629     0.06800
C363        C  0.48939427  0.21983222  0.29519896    -0.07700
C364        C  0.47133078  0.22097480  0.32761484     0.04300
C365        C  0.44235520  0.22999943  0.32254186    -0.15000
C366        C  0.43265236  0.23959015  0.28486442    -0.08300
C367        C  0.99967461  0.22642851  0.22421211     0.05200
C368        C  0.02322639  0.25160280  0.22414858    -0.09400
C369        C  0.04268831  0.25054824  0.19325166     0.00200
C370        C  0.03875129  0.22366444  0.16153351     0.00100
C371        C  0.01530146  0.19812341  0.16204085    -0.13000
C372        C  0.99601564  0.19905385  0.19306821     0.00500
C373        C  0.06573105  0.27855114  0.19424766     0.39800
C374        C  0.97300974  0.17098820  0.19272187     0.36500
C375        C  0.44014211  0.25085367  0.21487152     0.36200
C376        C  0.48355186  0.21462625  0.36583305     0.36900
N377        N  0.08416411  0.30104202  0.19505400    -0.43900
N378        N  0.95453415  0.14856780  0.19240977    -0.44300
N379        N  0.49340886  0.20983310  0.39644977    -0.41700
N380        N  0.43155008  0.26032183  0.18463106    -0.43100
H381        H  0.41070396  0.24742253  0.28052945     0.13100
H382        H  0.01158225  0.21255527  0.29938124     0.09600
H383        H  0.52577754  0.27255881  0.24791304     0.10600
H384        H  0.01210607  0.17701990  0.13821893     0.16400
C385        C  0.25435492  0.30396260  0.80828099    -0.01800
C386        C  0.24970911  0.27820334  0.77617132     0.06800
C387        C  0.22550873  0.25436074  0.77540687    -0.07700
C388        C  0.20612009  0.25543635  0.80637150     0.04300
C389        C  0.21079017  0.28110600  0.83889135    -0.15000
C390        C  0.23499601  0.30524917  0.83919073    -0.08300
C391        C  0.27003455  0.27540789  0.74326280     0.05200
C392        C  0.29641693  0.25778427  0.74952120    -0.09400
C393        C  0.31619285  0.25442520  0.71912295     0.00200
C394        C  0.30972826  0.26946859  0.68149131     0.00100
C395        C  0.28311202  0.28710252  0.67561337    -0.13000
C396        C  0.26334615  0.28993465  0.70590666     0.00500
C397        C  0.34280961  0.23568975  0.72790232     0.39800
C398        C  0.23644013  0.30835803  0.69812785     0.36500
C399        C  0.27867140  0.32969333  0.80987282     0.36200
C400        C  0.18251739  0.22840818  0.80469786     0.36900
N401        N  0.36395352  0.22035162  0.73539552    -0.43900
N402        N  0.21485692  0.32305710  0.69189948    -0.44300
N403        N  0.16369397  0.20659125  0.80337756    -0.41700
N404        N  0.29815650  0.35031806  0.81111043    -0.43100
H405        H  0.23886544  0.32528469  0.86368766     0.13100
H406        H  0.22204567  0.23431640  0.75078046     0.09600
H407        H  0.30149069  0.24642069  0.77831511     0.10600
H408        H  0.27746980  0.29848137  0.64704787     0.16400
C409        C  0.26855339  0.25151750  0.28381647    -0.01800
C410        C  0.24954938  0.28327099  0.27831511     0.06800
C411        C  0.25038994  0.31588600  0.30419493    -0.07700
C412        C  0.26950804  0.31698132  0.33557035     0.04300
C413        C  0.28869286  0.28526412  0.34106206    -0.15000
C414        C  0.28815397  0.25296759  0.31465106    -0.08300
C415        C  0.22882954  0.28317064  0.24549947     0.05200
C416        C  0.20459296  0.25958174  0.24802656    -0.09400
C417        C  0.18482791  0.25814603  0.21736987     0.00200
C418        C  0.18936821  0.28037487  0.18270237     0.00100
C419        C  0.21356517  0.30462387  0.18093388    -0.13000
C420        C  0.23304248  0.30625444  0.21184249     0.00500
C421        C  0.16020658  0.23362312  0.22282060     0.39800
C422        C  0.25759525  0.33121982  0.20806914     0.36500
C423        C  0.26813706  0.21704544  0.25830912     0.36200
C424        C  0.26940495  0.35142728  0.36117880     0.36900
N425        N  0.14047020  0.21402903  0.22741622    -0.43900
N426        N  0.27728167  0.35123643  0.20514929    -0.44300
N427        N  0.26930351  0.37905287  0.38166264    -0.41700
N428        N  0.26766838  0.18933658  0.23795669    -0.43100
H429        H  0.30249728  0.22824824  0.31882137     0.13100
H430        H  0.23590648  0.34043877  0.29998656     0.09600
H431        H  0.20112451  0.24216973  0.27416095     0.10600
H432        H  0.21763166  0.32213042  0.15505746     0.16400
C433        C  0.02775806  0.02958416  0.97133704    -0.01800
C434        C  0.00152568  0.02739202  0.99050708     0.06800
C435        C  0.48960887  0.06176077  0.00713098    -0.07700
C436        C  0.00354845  0.09826332  0.00503407     0.04300
C437        C  0.02993680  0.10041375  0.98613769    -0.15000
C438        C  0.04159888  0.06603656  0.96899433    -0.08300
C439        C  0.48668045  0.98916183  0.99493248     0.05200
C440        C  0.98472835  0.97303209  0.03259292    -0.09400
C441        C  0.47181301  0.93626541  0.03830508     0.00200
C442        C  0.46084901  0.91474234  0.00583520     0.00100
C443        C  0.46262470  0.93146525  0.96827541    -0.13000
C444        C  0.47513923  0.96850530  0.96269380     0.00500
C445        C  0.97060585  0.92151077  0.07791758     0.39800
C446        C  0.47529325  0.98518546  0.92386345     0.36500
C447        C  0.04134819  0.99460757  0.95523477     0.36200
C448        C  0.49023668  0.13305113  0.02166170     0.36900
N449        N  0.96957097  0.91026718  0.10981572    -0.43900
N450        N  0.47535987  0.99860740  0.89277952    -0.44300
N451        N  0.47944126  0.16104264  0.03475570    -0.41700
N452        N  0.05220493  0.96656154  0.94235537    -0.43100
H453        H  0.06200996  0.06742662  0.95474702     0.13100
H454        H  0.46941705  0.06002554  0.02191573     0.09600
H455        H  0.99344875  0.98920861  0.05743721     0.10600
H456        H  0.45374833  0.91593030  0.94316606     0.16400
C457        C  0.22352799  0.47439143  0.02804177    -0.01800
C458        C  0.24596582  0.47858297  0.00135917     0.06800
C459        C  0.25524011  0.44552331  0.97962049    -0.07700
C460        C  0.24232030  0.40849527  0.98389588     0.04300
C461        C  0.21983268  0.40419465  0.01076359    -0.15000
C462        C  0.21084760  0.43734727  0.03276353    -0.08300
C463        C  0.26082078  0.51687324  0.99721180     0.05200
C464        C  0.27478451  0.53268845  0.02996468    -0.09400
C465        C  0.28863332  0.56915853  0.02803782     0.00200
C466        C  0.28876738  0.59045352  0.99248619     0.00100
C467        C  0.27525081  0.57407331  0.95943375    -0.13000
C468        C  0.26124314  0.53762924  0.96156257     0.00500
C469        C  0.30324436  0.58308770  0.06269089     0.39800
C470        C  0.24686918  0.52269797  0.92715326     0.36500
C471        C  0.21260243  0.50797202  0.04997915     0.36200
C472        C  0.25309797  0.37539196  0.96111764     0.36900
N473        N  0.31491373  0.59411153  0.09052227    -0.43900
N474        N  0.23539004  0.51079772  0.89951859    -0.44300
N475        N  0.26176201  0.34892133  0.94282916    -0.41700
N476        N  0.20388360  0.53495667  0.06745399    -0.43100
H477        H  0.19329300  0.43462796  0.05291105     0.13100
H478        H  0.27279334  0.44863778  0.95952547     0.09600
H479        H  0.27488413  0.51631117  0.05718916     0.10600
H480        H  0.27523551  0.59005313  0.93199736     0.16400
O481        O  0.67296529  0.26998477  0.02669571    -0.88100
C482        C  0.59599326  0.30174316  0.06700727     0.87900
Mg483      Mg  0.68667544  0.28211337  0.96823847     1.58100
O484        O  0.60492779  0.20027551  0.04679649    -0.87800
O485        O  0.66849847  0.21937215  0.06605363    -0.75200
C486        C  0.57987905  0.22524832  0.85471917     0.93000
O487        O  0.63518036  0.34449265  0.00341392    -0.75000
O488        O  0.60032223  0.24976382  0.85360755    -0.82500
Mg489      Mg  0.65527008  0.31891995  0.05925516     1.58000
C490        C  0.54647433  0.13723563  0.98461696     0.92900
O491        O  0.67603836  0.29888755  0.11758118    -0.80800
H492        H  0.62650287  0.14996757  0.05493121    -0.06100
C493        C  0.56757072  0.26400129  0.95963229     0.87800
O494        O  0.67646727  0.21868045  0.94825373    -0.75300
O495        O  0.61878559  0.28404118  0.06944643    -0.88000
O496        O  0.54805678  0.15936670  0.01504602    -0.80800
C497        C  0.55778829  0.22220470  0.12701251     0.93000
C498        C  0.67033050  0.27796002  0.14762948     0.92900
Mg499      Mg  0.59608055  0.18518405  0.94245795     1.58000
O500        O  0.57528723  0.20432712  0.88498407    -0.80800
O501        O  0.61614566  0.15993762  0.99821249    -0.75000
O502        O  0.58361894  0.23213335  0.13086031    -0.80800
O503        O  0.69252372  0.35872001  0.04761441    -0.82500
O504        O  0.66593307  0.27290574  0.86999711    -0.80900
C505        C  0.61590374  0.16918068  0.03443451     0.87300
O506        O  0.63187287  0.22059029  0.93199546    -0.88000
O507        O  0.57753397  0.23378336  0.97463432    -0.88100
O508        O  0.58154735  0.28462596  0.93549789    -0.75200
Mg509      Mg  0.62540341  0.22744147  0.09603382     1.58000
O510        O  0.54766400  0.21123747  0.09411217    -0.82500
H511        H  0.70344894  0.22949278  0.03332983    -0.06300
O512        O  0.64516677  0.30373356  0.95459262    -0.87800
H513        H  0.62408254  0.35455573  0.94694988    -0.06100
H514        H  0.65555788  0.17200015  0.92402912    -0.06300
C515        C  0.63470195  0.33509557  0.96720008     0.87300
C516        C  0.68265689  0.23963369  0.04178755     0.87900
C517        C  0.65460179  0.20267413  0.93367095     0.87900
H518        H  0.54671273  0.27378647  0.96818383    -0.06300
O519        O  0.57420233  0.28518888  0.05268690    -0.75300
Mg520      Mg  0.62448091  0.27702274  0.90524538     1.58000
H521        H  0.59484734  0.33259728  0.07600638    -0.06300
C522        C  0.70394858  0.36681642  0.01494057     0.92900
O523        O  0.70221191  0.29255471  0.90668545    -0.82500
C524        C  0.69185151  0.28229961  0.87371253     0.93000
O525        O  0.64922443  0.25458358  0.14770607    -0.82500
Mg526      Mg  0.56345651  0.22165683  0.03270204     1.58200
O527        O  0.70123297  0.34436744  0.98499659    -0.80800
O528        O  0.55952859  0.14506662  0.95320149    -0.82500
O529        O  0.92185847  0.77531372  0.02223957    -0.88100
C530        C  0.84460218  0.79825547  0.06892390     0.87900
Mg531      Mg  0.93396210  0.78912146  0.96316259     1.58100
O532        O  0.85918934  0.69828659  0.04767082    -0.87800
O533        O  0.92167968  0.72522260  0.06281297    -0.75200
C534        C  0.82715303  0.72078599  0.85567519     0.93000
O535        O  0.87888209  0.84420893  0.00088779    -0.75000
O536        O  0.84712662  0.74596719  0.85285357    -0.82500
Mg537      Mg  0.90205011  0.82192632  0.05576587     1.58000
C538        C  0.80320937  0.62911304  0.98895213     0.92900
O539        O  0.92586710  0.80492631  0.11214980    -0.80800
H540        H  0.88391528  0.65056068  0.05359156    -0.06100
C541        C  0.81664316  0.75844380  0.96163512     0.87800
O542        O  0.92688099  0.72455393  0.94359923    -0.75300
O543        O  0.86830968  0.78299907  0.06912046    -0.88000
O544        O  0.80518025  0.65169778  0.01890195    -0.80800
C545        C  0.81306345  0.71265357  0.13091599     0.93000
C546        C  0.92315214  0.78393402  0.14284497     0.92900
Mg547      Mg  0.84785441  0.68255686  0.94288701     1.58000
O548        O  0.82415159  0.69996267  0.88642627    -0.80800
O549        O  0.87091323  0.65973649  0.99775595    -0.75000
O550        O  0.83822002  0.72605136  0.13418404    -0.80800
O551        O  0.93615185  0.86607641  0.04233600    -0.82500
O552        O  0.91237273  0.77683080  0.86504538    -0.80900
C553        C  0.87150531  0.66869447  0.03409702     0.87300
O554        O  0.88188015  0.72116274  0.92995086    -0.88000
O555        O  0.82841963  0.72945640  0.97652558    -0.88100
O556        O  0.82875046  0.77950662  0.93589775    -0.75200
Mg557      Mg  0.87933769  0.72776940  0.09591640     1.58000
O558        O  0.80299186  0.70226717  0.09777993    -0.82500
H559        H  0.95474344  0.73849810  0.02752390    -0.06300
O560        O  0.89124326  0.80603650  0.95094873    -0.87800
H561        H  0.86607275  0.85328187  0.94497286    -0.06100
H562        H  0.90802318  0.67528824  0.92108916    -0.06300
C563        C  0.87859755  0.83536482  0.96451710     0.87300
C564        C  0.93373872  0.74643858  0.03717000     0.87900
C565        C  0.90557939  0.70585958  0.93054789     0.87900
H566        H  0.79569621  0.76658228  0.97135222    -0.06300
O567        O  0.82330848  0.77970398  0.05570290    -0.75300
Mg568      Mg  0.87115556  0.77635128  0.90289377     1.58000
H569        H  0.84215534  0.82868851  0.07881315    -0.06300
C570        C  0.94687618  0.87569174  0.00970973     0.92900
O571        O  0.94780047  0.80129635  0.90061946    -0.82500
C572        C  0.93766134  0.78978634  0.86784100     0.93000
O573        O  0.90341327  0.75839131  0.14587779    -0.82500
Mg574      Mg  0.81646953  0.71532386  0.03558393     1.58200
O575        O  0.94523884  0.85306572  0.97966898    -0.80800
O576        O  0.81334037  0.63879657  0.95596313    -0.82500
O577        O  0.92341002  0.23254135  0.47601490    -0.88100
C578        C  0.84698208  0.20129980  0.43257503     0.87900
Mg579      Mg  0.93731639  0.21728241  0.53370840     1.58100
O580        O  0.85500884  0.30195136  0.45689746    -0.87800
O581        O  0.91856168  0.28441299  0.43820636    -0.75200
C582        C  0.82937374  0.26673030  0.64746944     0.93000
O583        O  0.88655185  0.15552367  0.49483924    -0.75000
O584        O  0.84992269  0.24230487  0.64756541    -0.82500
Mg585      Mg  0.90655957  0.18480557  0.44094443     1.58000
C586        C  0.79657885  0.36207552  0.52060385     0.92900
O587        O  0.92749344  0.20884605  0.38544833    -0.80800
H588        H  0.87685059  0.35238920  0.45173178    -0.06100
C589        C  0.81809791  0.23339216  0.54055214     0.87800
O590        O  0.92656422  0.27931025  0.55728251    -0.75300
O591        O  0.86962087  0.21943372  0.43168982    -0.88000
O592        O  0.79856564  0.34062095  0.48982304    -0.80800
C593        C  0.80809355  0.28423495  0.37527914     0.93000
C594        C  0.92233774  0.23067574  0.35600204     0.92900
Mg595      Mg  0.84578952  0.31179919  0.56205864     1.58000
O596        O  0.82481441  0.28936976  0.61835377    -0.80800
O597        O  0.86619660  0.33945989  0.50771701    -0.75000
O598        O  0.83374607  0.27328332  0.37072315    -0.80800
O599        O  0.94447051  0.14510580  0.45030364    -0.82500
O600        O  0.91590074  0.21994098  0.63196643    -0.80900
C601        C  0.86605542  0.33220149  0.47105542     0.87300
O602        O  0.88174581  0.27592500  0.57171526    -0.88000
O603        O  0.82777172  0.26459259  0.52726384    -0.88100
O604        O  0.83213578  0.21177857  0.56382723    -0.75200
Mg605      Mg  0.87573569  0.27703291  0.40685164     1.58000
O606        O  0.79814961  0.29343810  0.40877908    -0.82500
H607        H  0.95327014  0.27416878  0.47148514    -0.06300
O608        O  0.89601935  0.19406556  0.54550350    -0.87800
H609        H  0.87573238  0.14234419  0.55073534    -0.06100
H610        H  0.90487610  0.32416837  0.58361864    -0.06300
C611        C  0.88602944  0.16306127  0.53144182     0.87300
C612        C  0.93273697  0.26374601  0.46222759     0.87900
C613        C  0.90433366  0.29416843  0.57201481     0.87900
H614        H  0.79743690  0.22362920  0.53117391    -0.06300
O615        O  0.82482308  0.21695182  0.44685230    -0.75300
Mg616      Mg  0.87468822  0.21797706  0.59543388     1.58000
H617        H  0.84625103  0.17089271  0.42208696    -0.06300
C618        C  0.95554979  0.13535237  0.48271204     0.92900
O619        O  0.95267112  0.20319638  0.59479759    -0.82500
C620        C  0.94192946  0.21091265  0.62821004     0.93000
O621        O  0.90040736  0.25255926  0.35461828    -0.82500
Mg622      Mg  0.81380355  0.27948878  0.46968105     1.58200
O623        O  0.95241126  0.15642626  0.51354353    -0.80800
O624        O  0.80910364  0.35325313  0.55226582    -0.82500
O625        O  0.67148201  0.72426507  0.47439593    -0.88100
C626        C  0.59414697  0.70113185  0.42990773     0.87900
Mg627      Mg  0.68391703  0.71132204  0.53303816     1.58100
O628        O  0.60839262  0.80138708  0.45064321    -0.87800
O629        O  0.67108504  0.77463073  0.43426501    -0.75200
C630        C  0.57818079  0.77985555  0.64336783     0.93000
O631        O  0.62890751  0.65552446  0.49730757    -0.75000
O632        O  0.59840792  0.75493996  0.64564314    -0.82500
Mg633      Mg  0.65158212  0.67725051  0.44181705     1.58000
C634        C  0.55144551  0.87011871  0.50978808     0.92900
O635        O  0.67485435  0.69402731  0.38513129    -0.80800
H636        H  0.63260128  0.84943246  0.44397458    -0.06100
C637        C  0.56661002  0.74177531  0.53770022     0.87800
O638        O  0.67673474  0.77608231  0.55200027    -0.75300
O639        O  0.61781848  0.71637346  0.42895389    -0.88000
O640        O  0.55338616  0.84767983  0.47970236    -0.80800
C641        C  0.56214161  0.78641395  0.36804225     0.93000
C642        C  0.67224796  0.71532247  0.35463085     0.92900
Mg643      Mg  0.59757299  0.81782231  0.55537892     1.58000
O644        O  0.57430886  0.80036878  0.61250732    -0.80800
O645        O  0.62003469  0.84060092  0.50004971    -0.75000
O646        O  0.58737826  0.77336028  0.36465408    -0.80800
O647        O  0.68587481  0.63279033  0.45501278    -0.82500
O648        O  0.66372514  0.72347582  0.63225895    -0.80900
C649        C  0.62049870  0.83129895  0.46378592     0.87300
O650        O  0.63206575  0.77959164  0.56788058    -0.88000
O651        O  0.57813011  0.77063747  0.52231888    -0.88100
O652        O  0.57909836  0.72095811  0.56331265    -0.75200
Mg653      Mg  0.62854120  0.77179298  0.40213220     1.58000
O654        O  0.55195735  0.79657081  0.40118110    -0.82500
H655        H  0.70449923  0.76061992  0.46862704    -0.06300
O656        O  0.64142683  0.69452348  0.54650527    -0.87800
H657        H  0.61649904  0.64727589  0.55352755    -0.06100
H658        H  0.65827928  0.82561890  0.57470551    -0.06300
C659        C  0.62880495  0.66494822  0.53354567     0.87300
C660        C  0.68336168  0.75301517  0.45936010     0.87900
C661        C  0.65570217  0.79489783  0.56586170     0.87900
H662        H  0.54555878  0.73355908  0.52857127    -0.06300
O663        O  0.57298704  0.71973144  0.44357602    -0.75300
Mg664      Mg  0.62194090  0.72430440  0.59518773     1.58000
H665        H  0.59164675  0.67060474  0.42036612    -0.06300
C666        C  0.69679834  0.62385354  0.48774017     0.92900
O667        O  0.69832220  0.69987083  0.59468414    -0.82500
C668        C  0.68890888  0.71026037  0.62811139     0.93000
O669        O  0.65261525  0.74117094  0.35181266    -0.82500
Mg670      Mg  0.56572040  0.78412581  0.46329006     1.58200
O671        O  0.69529198  0.64722358  0.51723321    -0.80800
O672        O  0.56269375  0.86114078  0.54231175    -0.82500
C673        C  0.98476319  0.04209319  0.52742270    -0.01800
C674        C  0.99789768  0.02326882  0.49522431     0.06800
C675        C  0.49750051  0.04152786  0.45885655    -0.07700
C676        C  0.98456107  0.07861189  0.45357642     0.04300
C677        C  0.97132866  0.09755942  0.48588843    -0.15000
C678        C  0.97187764  0.07897323  0.52260870    -0.08300
C679        C  0.51151476  0.98398528  0.49950537     0.05200
C680        C  0.00071523  0.95144043  0.47860763    -0.09400
C681        C  0.51292225  0.91370064  0.48198102     0.00200
C682        C  0.53663046  0.90852404  0.50652849     0.00100
C683        C  0.54743405  0.94134168  0.52732331    -0.13000
C684        C  0.53533739  0.97895563  0.52362081     0.00500
C685        C  0.00040627  0.88101650  0.46062974     0.39800
C686        C  0.54826779  0.01216596  0.54382108     0.36500
C687        C  0.98345325  0.02364899  0.56542382     0.36200
C688        C  0.48572678  0.09645217  0.41564077     0.36900
N689        N  0.99027022  0.85477846  0.44358663    -0.43900
N690        N  0.55857315  0.03881068  0.56000914    -0.44300
N691        N  0.48685669  0.11067085  0.38494693    -0.41700
N692        N  0.98247014  0.00899947  0.59592267    -0.43100
H693        H  0.96148787  0.09275104  0.54759845     0.13100
H694        H  0.50777579  0.02704290  0.43415831     0.09600
H695        H  0.98228728  0.95531170  0.46020886     0.10600
H696        H  0.56593174  0.93785245  0.54565948     0.16400
C697        C  0.77771990  0.47028043  0.53254038    -0.01800
C698        C  0.75225600  0.47268692  0.51134347     0.06800
C699        C  0.74090501  0.43823457  0.49415180    -0.07700
C700        C  0.75461858  0.40162982  0.49759930     0.04300
C701        C  0.78007509  0.39916273  0.51888692    -0.15000
C702        C  0.79115967  0.43355721  0.53664340    -0.08300
C703        C  0.73759336  0.51104801  0.50559622     0.05200
C704        C  0.73467017  0.52557234  0.46746520    -0.09400
C705        C  0.72147769  0.56206987  0.46059518     0.00200
C706        C  0.71108548  0.58494326  0.49256430     0.00100
C707        C  0.71373663  0.56980276  0.53068706    -0.13000
C708        C  0.72655336  0.53311179  0.53734912     0.00500
C709        C  0.71944677  0.57519846  0.42053912     0.39800
C710        C  0.72746706  0.51827182  0.57689533     0.36500
C711        C  0.79112320  0.50534019  0.54865370     0.36200
C712        C  0.74190032  0.36698869  0.47962575     0.36900
N713        N  0.71779701  0.58532413  0.38831215    -0.43900
N714        N  0.72824045  0.50642009  0.60858864    -0.44300
N715        N  0.73179307  0.33916053  0.46524760    -0.41700
N716        N  0.80177250  0.53352144  0.56149668    -0.43100
H717        H  0.81098886  0.43204057  0.55238687     0.13100
H718        H  0.72132734  0.44004365  0.47784546     0.09600
H719        H  0.74300013  0.50841427  0.44297960     0.10600
H720        H  0.70530322  0.58633121  0.55550133     0.16400
C721        C  0.99833981  0.81932363  0.80125360    -0.01800
C722        C  0.99538272  0.79290104  0.76921305     0.06800
C723        C  0.97241491  0.76663639  0.76855372    -0.07700
C724        C  0.95296041  0.76561624  0.79962187     0.04300
C725        C  0.95627449  0.79139916  0.83242555    -0.15000
C726        C  0.97900732  0.81834193  0.83236321    -0.08300
C727        C  0.51660274  0.79102164  0.73702037     0.05200
C728        C  0.54377441  0.77673721  0.74517493    -0.09400
C729        C  0.56427031  0.77319530  0.71560396     0.00200
C730        C  0.55784315  0.78451228  0.67669368     0.00100
C731        C  0.53066829  0.79953963  0.66893046    -0.13000
C732        C  0.51014329  0.80253083  0.69845735     0.00500
C733        C  0.59171151  0.75825728  0.72638637     0.39800
C734        C  0.98266033  0.81776601  0.68859372     0.36500
C735        C  0.52082503  0.84809107  0.80254151     0.36200
C736        C  0.93074595  0.73638361  0.79774519     0.36900
N737        N  0.61366445  0.74618002  0.73510402    -0.43900
N738        N  0.96055995  0.82982434  0.68061781    -0.44300
N739        N  0.91299720  0.71285761  0.79617528    -0.41700
N740        N  0.53889055  0.87115680  0.80346038    -0.43100
H741        H  0.98182547  0.83873324  0.85685992     0.13100
H742        H  0.97009059  0.74611681  0.74405018     0.09600
H743        H  0.54888452  0.76786127  0.77480724     0.10600
H744        H  0.52512622  0.80826097  0.63941285     0.16400
C745        C  0.50183668  0.82027199  0.30322971    -0.01800
C746        C  0.50422744  0.79462061  0.27050584     0.06800
C747        C  0.52709128  0.76818224  0.26838107    -0.07700
C748        C  0.54675766  0.76569334  0.29901002     0.04300
C749        C  0.54362346  0.78999172  0.33287628    -0.15000
C750        C  0.52124271  0.81757325  0.33406029    -0.08300
C751        C  0.98269920  0.79432550  0.23868511     0.05200
C752        C  0.99052666  0.80603429  0.20095720    -0.09400
C753        C  0.97153399  0.80343064  0.16953469     0.00200
C754        C  0.94376776  0.78901513  0.17562009     0.00100
C755        C  0.93601683  0.77750299  0.21365377    -0.13000
C756        C  0.95516290  0.77990103  0.24493531     0.00500
C757        C  0.98189604  0.81349083  0.13110128     0.39800
C758        C  0.94647742  0.76580150  0.28287722     0.36500
C759        C  0.47983711  0.84990192  0.30558949     0.36200
C760        C  0.56909615  0.73671094  0.29541159     0.36900
N761        N  0.99034427  0.82130495  0.10031633    -0.43900
N762        N  0.93960886  0.75446340  0.31331194    -0.44300
N763        N  0.58700141  0.71348622  0.29239016    -0.41700
N764        N  0.46229073  0.87377229  0.30745102    -0.43100
H765        H  0.51879412  0.83714782  0.35928078     0.13100
H766        H  0.02924763  0.74933933  0.24280901     0.09600
H767        H  0.51181797  0.81635084  0.19589650     0.10600
H768        H  0.91500896  0.76610559  0.21896513     0.16400
C769        C  0.79467964  0.72937601  0.75403627    -0.01800
C770        C  0.76776206  0.71238899  0.75915802     0.06800
C771        C  0.76074869  0.69667678  0.79574515    -0.07700
C772        C  0.77972062  0.69829891  0.82726538     0.04300
C773        C  0.80665136  0.71609377  0.82256466    -0.15000
C774        C  0.81369996  0.73123996  0.78551274    -0.08300
C775        C  0.74668479  0.71061623  0.72670100     0.05200
C776        C  0.75260859  0.68746236  0.69337179    -0.09400
C777        C  0.73376469  0.68558973  0.66175497     0.00200
C778        C  0.70829934  0.70795712  0.66268156     0.00100
C779        C  0.70203342  0.73006274  0.69684395    -0.13000
C780        C  0.72082904  0.73136925  0.72865909     0.00500
C781        C  0.74109930  0.65960336  0.62934212     0.39800
C782        C  0.71346607  0.75507370  0.76264139     0.36500
C783        C  0.80302211  0.74603745  0.71698782     0.36200
C784        C  0.77032467  0.68244684  0.86419438     0.36900
N785        N  0.74704204  0.63863273  0.60353481    -0.43900
N786        N  0.70756005  0.77389325  0.79000446    -0.44300
N787        N  0.76263883  0.66968795  0.89368527    -0.41700
N788        N  0.80975210  0.75932793  0.68728588    -0.43100
H789        H  0.83413770  0.74483884  0.78103167     0.13100
H790        H  0.74019011  0.68324347  0.79974429     0.09600
H791        H  0.77209764  0.67059059  0.69214709     0.10600
H792        H  0.68267423  0.74715828  0.69847874     0.16400
C793        C  0.75209190  0.67942155  0.19500103    -0.01800
C794        C  0.75419024  0.70512643  0.22771963     0.06800
C795        C  0.77723882  0.73116900  0.23027926    -0.07700
C796        C  0.79730305  0.73328537  0.20005214     0.04300
C797        C  0.79437644  0.70910036  0.16605655    -0.15000
C798        C  0.77184677  0.68182170  0.16453971    -0.08300
C799        C  0.73248407  0.70578268  0.25939314     0.05200
C800        C  0.74013799  0.69414579  0.29723173    -0.09400
C801        C  0.72084604  0.69615489  0.32835765     0.00200
C802        C  0.69302128  0.71036055  0.32199082     0.00100
C803        C  0.68540672  0.72173848  0.28386801    -0.13000
C804        C  0.70475268  0.71948990  0.25277225     0.00500
C805        C  0.73085336  0.68524944  0.36676263     0.39800
C806        C  0.69591531  0.73262511  0.21455150     0.36500
C807        C  0.73007137  0.64992866  0.19233567     0.36200
C808        C  0.81992482  0.76164599  0.20429489     0.36900
N809        N  0.73894911  0.67659462  0.39751454    -0.43900
N810        N  0.68881008  0.74304462  0.18388516    -0.44300
N811        N  0.83806268  0.78435364  0.20792778    -0.41700
N812        N  0.71248255  0.62620131  0.19029487    -0.43100
H813        H  0.76954156  0.66223310  0.13931561     0.13100
H814        H  0.77919845  0.75061203  0.25567567     0.09600
H815        H  0.76146631  0.68386671  0.30255593     0.10600
H816        H  0.66429950  0.73273237  0.27831174     0.16400
C817        C  0.00508769  0.18736588  0.69222491    -0.01800
C818        C  0.99955176  0.20988309  0.72642537     0.06800
C819        C  0.97428125  0.23144955  0.72910251    -0.07700
C820        C  0.95487801  0.23160546  0.69810527     0.04300
C821        C  0.96061941  0.20968227  0.66332537    -0.15000
C822        C  0.98574676  0.18741087  0.66120202    -0.08300
C823        C  0.52040288  0.21250615  0.75910944     0.05200
C824        C  0.54666073  0.23034979  0.75240110    -0.09400
C825        C  0.56650875  0.23472797  0.78262400     0.00200
C826        C  0.56022005  0.22090716  0.82073374     0.00100
C827        C  0.53387152  0.20269644  0.82705552    -0.13000
C828        C  0.51407193  0.19859980  0.79687028     0.00500
C829        C  0.59308485  0.25316394  0.77323123     0.39800
C830        C  0.98686255  0.18145851  0.80578400     0.36500
C831        C  0.53066308  0.16412344  0.68820392     0.36200
C832        C  0.93014726  0.25635007  0.70222596     0.36900
N833        N  0.61429465  0.26806915  0.76541469    -0.43900
N834        N  0.96534276  0.16702875  0.81280448    -0.44300
N835        N  0.91043398  0.27639785  0.70554555    -0.41700
N836        N  0.55105891  0.14546272  0.68503390    -0.43100
H837        H  0.99046778  0.17007199  0.63504823     0.13100
H838        H  0.97004977  0.24912313  0.75521375     0.09600
H839        H  0.55154895  0.24128972  0.72339463     0.10600
H840        H  0.52841310  0.19196425  0.85592825     0.16400
C841        C  0.95116276  0.23977107  0.25273026    -0.01800
C842        C  0.97963014  0.22864485  0.25765486     0.06800
C843        C  0.98954205  0.22008639  0.29530263    -0.07700
C844        C  0.97147011  0.22124326  0.32770814     0.04300
C845        C  0.94252078  0.23043921  0.32263575    -0.15000
C846        C  0.93287209  0.24027006  0.28499494    -0.08300
C847        C  0.49950590  0.22607680  0.22409462     0.05200
C848        C  0.52294136  0.25146910  0.22398542    -0.09400
C849        C  0.54244002  0.25048171  0.19313021     0.00200
C850        C  0.53865922  0.22345125  0.16149940     0.00100
C851        C  0.51531982  0.19771138  0.16203846    -0.13000
C852        C  0.49599988  0.19856994  0.19302851     0.00500
C853        C  0.56535549  0.27869260  0.19406842     0.39800
C854        C  0.47312937  0.17028652  0.19273493     0.36500
C855        C  0.94045415  0.25186100  0.21507862     0.36200
C856        C  0.98366034  0.21473679  0.36591886     0.36900
N857        N  0.58368665  0.30134959  0.19482737    -0.43900
N858        N  0.45476418  0.14768652  0.19246241    -0.44300
N859        N  0.99349312  0.20982944  0.39653211    -0.41700
N860        N  0.93192813  0.26158333  0.18488298    -0.43100
H861        H  0.91095307  0.24826872  0.28066817     0.13100
H862        H  0.51146205  0.21246989  0.29928971     0.09600
H863        H  0.02617888  0.27258630  0.24813900     0.10600
H864        H  0.51224473  0.17650195  0.13827654     0.16400
C865        C  0.75481838  0.30287020  0.80881569    -0.01800
C866        C  0.74972259  0.27786738  0.77626781     0.06800
C867        C  0.72510766  0.25490237  0.77510372    -0.07700
C868        C  0.70573391  0.25610289  0.80608534     0.04300
C869        C  0.71082189  0.28106780  0.83902804    -0.15000
C870        C  0.73545883  0.30433846  0.83971874    -0.08300
C871        C  0.76998979  0.27498030  0.74329263     0.05200
C872        C  0.79609898  0.25644931  0.74922471    -0.09400
C873        C  0.81583998  0.25308373  0.71878164     0.00200
C874        C  0.80960712  0.26898718  0.68141972     0.00100
C875        C  0.78325145  0.28749537  0.67586500    -0.13000
C876        C  0.76353312  0.29038892  0.70620982     0.00500
C877        C  0.84219457  0.23347028  0.72724558     0.39800
C878        C  0.73693824  0.30983447  0.69878160     0.36500
C879        C  0.77962671  0.32761873  0.81089297     0.36200
C880        C  0.68168660  0.22989574  0.80392745     0.36900
N881        N  0.86314800  0.21747044  0.73443137    -0.43900
N882        N  0.71561076  0.32536802  0.69282259    -0.44300
N883        N  0.66251352  0.20871747  0.80221048    -0.41700
N884        N  0.79951705  0.34743440  0.81252422    -0.43100
H885        H  0.73968952  0.32381283  0.86453400     0.13100
H886        H  0.72130048  0.23542308  0.75013979     0.09600
H887        H  0.80099605  0.24442018  0.77780825     0.10600
H888        H  0.77777996  0.29957520  0.64752277     0.16400
C889        C  0.76883355  0.25186806  0.28355611    -0.01800
C890        C  0.74970628  0.28350103  0.27818516     0.06800
C891        C  0.75043927  0.31602684  0.30418357    -0.07700
C892        C  0.76955112  0.31713152  0.33556575     0.04300
C893        C  0.78882893  0.28550770  0.34096025    -0.15000
C894        C  0.78841604  0.25332355  0.31441161    -0.08300
C895        C  0.72893149  0.28333639  0.24543141     0.05200
C896        C  0.70493640  0.25924223  0.24779830    -0.09400
C897        C  0.68512304  0.25773922  0.21720555     0.00200
C898        C  0.68935771  0.28044240  0.18276730     0.00100
C899        C  0.71331359  0.30517849  0.18115770    -0.13000
C900        C  0.73284537  0.30685515  0.21199930     0.00500
C901        C  0.66079923  0.23259090  0.22245492     0.39800
C902        C  0.75715975  0.33230224  0.20836548     0.36500
C903        C  0.76857821  0.21752248  0.25787791     0.36200
C904        C  0.76933811  0.35148925  0.36129017     0.36900
N905        N  0.64130366  0.21248664  0.22689049    -0.43900
N906        N  0.77665767  0.35269833  0.20555286    -0.44300
N907        N  0.76915132  0.37904322  0.38186751    -0.41700
N908        N  0.76824653  0.18991717  0.23738282    -0.43100
H909        H  0.80284368  0.22868481  0.31848988     0.13100
H910        H  0.73586625  0.34049278  0.30007424     0.09600
H911        H  0.70169991  0.24147458  0.27375499     0.10600
H912        H  0.71714797  0.32304693  0.15545603     0.16400
C913        C  0.52754323  0.02956033  0.97087046    -0.01800
C914        C  0.50140538  0.02739215  0.99029601     0.06800
C915        C  0.98957623  0.06178080  0.00709496    -0.07700
C916        C  0.50364977  0.09818880  0.00510502     0.04300
C917        C  0.52997162  0.10030805  0.98602034    -0.15000
C918        C  0.54146721  0.06595997  0.96859236    -0.08300
C919        C  0.98683436  0.98912799  0.99507010     0.05200
C920        C  0.48470121  0.97304038  0.03246064    -0.09400
C921        C  0.97186525  0.93622634  0.03836370     0.00200
C922        C  0.96102300  0.91466963  0.00583020     0.00100
C923        C  0.96295473  0.93134966  0.96826768    -0.13000
C924        C  0.97547288  0.96839806  0.96275155     0.00500
C925        C  0.47063912  0.92155613  0.07786531     0.39800
C926        C  0.97583101  0.98500165  0.92389135     0.36500
C927        C  0.54095524  0.99460568  0.95442847     0.36200
C928        C  0.99000771  0.13314001  0.02135380     0.36900
N929        N  0.46966495  0.91033053  0.10977329    -0.43900
N930        N  0.97607015  0.99835852  0.89278153    -0.44300
N931        N  0.97910972  0.16113945  0.03426268    -0.41700
N932        N  0.55166186  0.96657807  0.94126430    -0.43100
H933        H  0.56181405  0.06732185  0.95416674     0.13100
H934        H  0.96931893  0.06002124  0.02170223     0.09600
H935        H  0.49353347  0.98917819  0.05725200     0.10600
H936        H  0.95419954  0.91577497  0.94309954     0.16400
C937        C  0.72326188  0.47461662  0.02811065    -0.01800
C938        C  0.74585644  0.47872196  0.00167675     0.06800
C939        C  0.75529724  0.44558838  0.98019326    -0.07700
C940        C  0.74238339  0.40856018  0.98447300     0.04300
C941        C  0.71972274  0.40434903  0.01106429    -0.15000
C942        C  0.71057333  0.43757485  0.03282467    -0.08300
C943        C  0.76069570  0.51700957  0.99750692     0.05200
C944        C  0.77465321  0.53286004  0.03024372    -0.09400
C945        C  0.78857381  0.56927183  0.02823657     0.00200
C946        C  0.78876525  0.59047586  0.99262747     0.00100
C947        C  0.77521413  0.57407895  0.95961152    -0.13000
C948        C  0.76114310  0.53769089  0.96182068     0.00500
C949        C  0.80320233  0.58322760  0.06286599     0.39800
C950        C  0.74672324  0.52273370  0.92746010     0.36500
C951        C  0.71218762  0.50828079  0.04977382     0.36200
C952        C  0.75334229  0.37535793  0.96200816     0.36900
N953        N  0.81488645  0.59427297  0.09067738    -0.43900
N954        N  0.73519398  0.51081021  0.89987583    -0.44300
N955        N  0.76215106  0.34880145  0.94397877    -0.41700
N956        N  0.70334411  0.53533340  0.06702172    -0.43100
H957        H  0.69289108  0.43490765  0.05276310     0.13100
H958        H  0.77297075  0.44865063  0.96029398     0.09600
H959        H  0.77470894  0.51654397  0.05750469     0.10600
H960        H  0.77522223  0.59000204  0.93214273     0.16400
loop_ 
_geom_bond_atom_site_label_1 
_geom_bond_atom_site_label_2 
_geom_bond_distance 
_geom_bond_site_symmetry_2 
_ccdc_geom_bond_type 
O1           Mg3   2.142   1_554  S
O1           Mg9   2.147       .  S
O1           C36   1.237       .  S
C2           O15   1.237       .  S
C2           O39   1.270       .  A
C2           H41   1.081       .  S
Mg3          O32   2.151       .  S
Mg3          O47   2.274       .  S
Mg3          O43   2.257       .  S
Mg3          O14   2.287       .  S
O4          Mg46   2.150       .  S
O4          Mg29   2.138       .  S
O4           C25   1.238       .  S
O5           C36   1.271       .  A
O5          Mg29   2.301       .  S
C6            O8   1.275       .  A
C6           O20   1.275       .  A
C6          C346   1.494       .  S
O7           C35   1.273   1_554  A
O7           Mg9   2.305       .  S
O8          Mg40   2.287       .  S
Mg9          O15   2.123       .  S
Mg9          O23   2.257       .  S
Mg9          O11   2.327       .  S
C10          O48   1.268       .  A
C10          O16   1.274   1_556  A
C10         C437   1.470       .  S
O11          C18   1.279       .  A
H12          C25   1.081       .  S
C13          O27   1.236       .  S
C13          O28   1.270       .  A
C13          H38   1.082       .  S
O14          C37   1.269       .  A
O15         Mg29   2.141       .  S
O16         Mg46   2.295       .  S
C17          O30   1.273       .  A
C17          O22   1.277       .  A
C17         C370   1.487       .  S
C18          O45   1.274       .  A
C18         C418   1.503       .  S
Mg19         O26   2.108       .  S
Mg19         O27   2.148       .  S
Mg19         O20   2.293       .  S
Mg19         O21   2.297       .  S
Mg19         O48   2.232       .  S
O21          C25   1.272   1_556  A
O22         Mg29   2.315       .  S
O23          C42   1.272       .  A
O24          C44   1.276       .  A
O24         Mg40   2.309       .  S
O26         Mg40   2.144       .  S
O26          C37   1.236       .  S
O27         Mg46   2.135   1_556  S
O28         Mg40   2.297       .  S
Mg29         O45   2.278       .  S
O30         Mg46   2.257       .  S
H31          C36   1.082       .  S
O32         Mg40   2.140       .  S
O32          C35   1.239       .  S
H33          C35   1.081       .  S
H34          C37   1.081       .  S
O39         Mg46   2.295       .  S
C42          O47   1.271   1_554  A
C42         C461   1.476       .  S
O43          C44   1.272       .  A
C44         C389   1.486       .  S
O49         Mg51   2.152   1_554  S
O49         Mg57   2.148       .  S
O49          C84   1.237       .  S
C50          O63   1.236       .  S
C50          O87   1.269       .  A
C50          H89   1.081       .  S
Mg51         O80   2.146       .  S
Mg51         O95   2.282       .  S
Mg51         O91   2.275       .  S
Mg51         O62   2.291       .  S
O52         Mg94   2.146       .  S
O52         Mg77   2.140       .  S
O52          C73   1.240       .  S
O53          C84   1.272       .  A
O53         Mg77   2.306       .  S
C54          O56   1.276       .  A
C54          O68   1.276       .  A
C54         C293   1.498       .  S
O55          C83   1.274   1_554  A
O55         Mg57   2.303       .  S
O56         Mg88   2.286       .  S
Mg57         O63   2.123       .  S
Mg57         O71   2.249       .  S
Mg57         O59   2.309       .  S
C58          O96   1.270       .  A
C58          O64   1.271   1_556  A
C58         C466   1.477       .  S
O59          C66   1.276       .  A
H60          C73   1.081       .  S
C61          O75   1.237       .  S
C61          O76   1.272       .  A
C61          H86   1.082       .  S
O62          C85   1.269       .  A
O63         Mg77   2.144       .  S
O64         Mg94   2.275       .  S
C65          O78   1.273       .  A
C65          O70   1.281       .  A
C65         C317   1.497       .  S
C66          O93   1.277       .  A
C66         C274   1.495       .  S
Mg67         O74   2.122       .  S
Mg67         O75   2.149       .  S
Mg67         O68   2.311       .  S
Mg67         O69   2.307       .  S
Mg67         O96   2.251       .  S
O69          C73   1.274   1_556  A
O70         Mg77   2.349       .  S
O71          C90   1.269       .  A
O72          C92   1.280       .  A
O72         Mg88   2.344       .  S
O74         Mg88   2.143       .  S
O74          C85   1.236       .  S
O75         Mg94   2.152   1_556  S
O76         Mg88   2.308       .  S
Mg77         O93   2.289       .  S
O78         Mg94   2.264       .  S
H79          C84   1.082       .  S
O80         Mg88   2.136       .  S
O80          C83   1.240       .  S
H81          C83   1.081       .  S
H82          C85   1.081       .  S
O87         Mg94   2.290       .  S
C90          O95   1.273   1_554  A
C90         C442   1.481       .  S
O91          C92   1.275       .  A
C92         C245   1.499       .  S
O97         Mg99   2.144       .  S
O97        Mg105   2.148       .  S
O97         C132   1.237       .  S
C98         O111   1.237       .  S
C98         O135   1.270       .  A
C98         H137   1.081       .  S
Mg99        O128   2.150       .  S
Mg99        O143   2.269       .  S
Mg99        O139   2.263       .  S
Mg99        O110   2.286       .  S
O100       Mg142   2.143       .  S
O100       Mg125   2.135       .  S
O100        C121   1.239       .  S
O101        C132   1.272       .  A
O101       Mg125   2.309       .  S
C102        O104   1.274       .  A
C102        O116   1.277       .  A
C102        C394   1.492       .  S
O103        C131   1.272       .  A
O103       Mg105   2.301       .  S
O104       Mg136   2.278       .  S
Mg105       O111   2.128       .  S
Mg105       O119   2.263       .  S
Mg105       O107   2.295       .  S
C106        O144   1.271       .  A
C106        O112   1.272       .  A
C106        C221   1.474       .  S
O107        C114   1.274       .  A
H108        C121   1.081       .  S
C109        O123   1.237       .  S
C109        O124   1.270       .  A
C109        H134   1.082       .  S
O110        C133   1.268       .  A
O111       Mg125   2.143       .  S
O112       Mg142   2.279       .  S
C113        O126   1.272       .  A
C113        O118   1.280       .  A
C113        C413   1.487       .  S
C114        O141   1.275       .  A
C114        C365   1.488       .  S
Mg115       O122   2.116       .  S
Mg115       O123   2.151       .  S
Mg115       O116   2.299       .  S
Mg115       O117   2.298       .  S
Mg115       O144   2.256       .  S
O117        C121   1.272       .  A
O118       Mg125   2.346       .  S
O119        C138   1.271       .  A
O120        C140   1.278       .  A
O120       Mg136   2.320       .  S
O122       Mg136   2.146       .  S
O122        C133   1.236       .  S
O123       Mg142   2.139       .  S
O124       Mg136   2.298       .  S
Mg125       O141   2.279       .  S
O126       Mg142   2.261       .  S
H127        C132   1.082       .  S
O128       Mg136   2.132       .  S
O128        C131   1.239       .  S
H129        C131   1.081       .  S
H130        C133   1.081       .  S
O135       Mg142   2.296       .  S
C138        O143   1.272       .  A
C138        C197   1.480       .  S
O139        C140   1.273       .  A
C140        C341   1.492       .  S
O145       Mg147   2.136       .  S
O145       Mg153   2.144       .  S
O145        C180   1.236       .  S
C146        O159   1.236       .  S
C146        O183   1.269       .  A
C146        H185   1.081       .  S
Mg147       O176   2.146       .  S
Mg147       O191   2.281       .  S
Mg147       O187   2.249       .  S
Mg147       O158   2.292       .  S
O148       Mg190   2.152       .  S
O148       Mg173   2.147       .  S
O148        C169   1.240       .  S
O149        C180   1.270       .  A
O149       Mg173   2.299       .  S
C150        O152   1.276       .  A
C150        O164   1.278       .  A
C150        C250   1.498       .  S
O151        C179   1.274       .  A
O151       Mg153   2.304       .  S
O152       Mg184   2.287       .  S
Mg153       O159   2.121       .  S
Mg153       O167   2.257       .  S
Mg153       O155   2.303       .  S
C154        O192   1.271       .  A
C154        O160   1.271       .  A
C154        C202   1.475       .  S
O155        C162   1.276       .  A
H156        C169   1.081       .  S
C157        O171   1.237       .  S
C157        O172   1.272       .  A
C157        H182   1.082       .  S
O158        C181   1.270       .  A
O159       Mg173   2.148       .  S
O160       Mg190   2.280       .  S
C161        O174   1.273       .  A
C161        O166   1.280       .  A
C161        C269   1.493       .  S
C162        O189   1.278       .  A
C162        C322   1.495       .  S
Mg163       O170   2.126       .  S
Mg163       O171   2.148       .  S
Mg163       O164   2.321       .  S
Mg163       O165   2.307       .  S
Mg163       O192   2.251       .  S
O165        C169   1.274       .  A
O166       Mg173   2.335       .  S
O167        C186   1.270       .  A
O168        C188   1.281       .  A
O168       Mg184   2.351       .  S
O170       Mg184   2.144       .  S
O170        C181   1.237       .  S
O171       Mg190   2.151       .  S
O172       Mg184   2.307       .  S
Mg173       O189   2.296       .  S
O174       Mg190   2.260       .  S
H175        C180   1.082       .  S
O176       Mg184   2.140       .  S
O176        C179   1.240       .  S
H177        C179   1.081       .  S
H178        C181   1.081       .  S
O183       Mg190   2.288       .  S
C186        O191   1.273       .  A
C186        C226   1.484       .  S
O187        C188   1.271       .  A
C188        C298   1.498       .  S
C193        C194   1.408       .  A
C193        C198   1.394       .  A
C193        C207   1.445       .  S
C194        C679   1.478   1_545  S
C194        C675   1.402       .  A
C195        H214   1.085   1_655  S
C195        C674   1.402       .  A
C195        C676   1.400       .  A
C196        C197   1.415       .  A
C196        C675   1.400       .  A
C196        C688   1.444       .  S
C197        C198   1.407       .  A
C198        H213   1.085       .  S
C199        C674   1.478   1_465  S
C199        C204   1.409       .  A
C199        C680   1.402       .  A
C200        H215   1.085       .  S
C200        C679   1.402       .  A
C200        C681   1.399       .  A
C201        C202   1.414       .  A
C201        C680   1.399       .  A
C201        C685   1.445       .  S
C202        C203   1.404       .  A
C203        H216   1.085       .  S
C203        C204   1.396       .  A
C204        C206   1.444   1_565  S
C205        C681   1.445       .  S
C205        N209   1.157       .  T
C206        N210   1.157       .  T
C207        N212   1.157       .  T
C208        C676   1.444       .  S
C208        N211   1.157       .  T
C217        C218   1.411       .  A
C217        C222   1.398       .  A
C217        C231   1.445       .  S
C218        C223   1.480       .  S
C218        C219   1.402       .  A
C219        H238   1.085       .  S
C219        C220   1.398       .  A
C220        C221   1.412       .  A
C220        C232   1.444       .  S
C221        C222   1.404       .  A
C222        H237   1.085       .  S
C223        C224   1.402       .  A
C223        C228   1.408       .  A
C224        H239   1.085       .  S
C224        C225   1.399       .  A
C225        C226   1.417       .  A
C225        C229   1.444       .  S
C226        C227   1.408       .  A
C227        H240   1.085       .  S
C227        C228   1.396       .  A
C228        C230   1.445       .  S
C229        N233   1.157       .  T
C230        N234   1.157       .  T
C231        N236   1.157       .  T
C232        N235   1.157       .  T
C241        C242   1.409       .  A
C241        C246   1.404       .  A
C241        C735   1.444       .  S
C242        C727   1.494       .  S
C242        C243   1.404       .  A
C243        H262   1.085       .  S
C243        C244   1.407       .  A
C244        C245   1.418       .  A
C244        C256   1.444       .  S
C245        C246   1.410       .  A
C246        H261   1.085       .  S
C247        C722   1.494   1_455  S
C247        C248   1.404       .  A
C247        C252   1.409       .  A
C248        H263   1.085       .  S
C248        C249   1.405       .  A
C249        C250   1.418       .  A
C249        C253   1.444       .  S
C250        C251   1.410       .  A
C251        H264   1.084       .  S
C251        C252   1.404       .  A
C252        C734   1.444   1_455  S
C253        N257   1.157       .  T
C254        C732   1.444       .  S
C254        N258   1.157       .  T
C255        C721   1.444   1_455  S
C255        N260   1.157       .  T
C256        N259   1.157       .  T
C265        C266   1.409       .  A
C265        C270   1.402       .  A
C265        C279   1.444   1_455  S
C266        C751   1.490   1_455  S
C266        C267   1.403       .  A
C267        H766   1.085       .  S
C267        C268   1.404       .  A
C268        C269   1.417       .  A
C268        C280   1.444       .  S
C269        C270   1.410       .  A
C270        H285   1.085       .  S
C271        C746   1.490       .  S
C271        C272   1.401       .  A
C271        C276   1.411       .  A
C272        H767   1.085       .  S
C272        C273   1.403       .  A
C273        C274   1.421       .  A
C273        C277   1.444       .  S
C274        C275   1.408       .  A
C275        H288   1.084       .  S
C275        C276   1.404       .  A
C276        C278   1.444       .  S
C277        N281   1.157       .  T
C278        N282   1.157       .  T
C279        N284   1.157       .  T
C280        N283   1.157       .  T
H286        C747   1.085       .  S
H287        C752   1.085   1_455  S
C289        C290   1.411       .  A
C289        C294   1.404       .  A
C289        C303   1.444       .  S
C290        C295   1.493       .  S
C290        C291   1.401       .  A
C291        H310   1.085       .  S
C291        C292   1.403       .  A
C292        C293   1.422       .  A
C292        C304   1.444       .  S
C293        C294   1.409       .  A
C294        H309   1.084       .  S
C295        C296   1.400       .  A
C295        C300   1.412       .  A
C296        H311   1.085       .  S
C296        C297   1.402       .  A
C297        C298   1.423       .  A
C297        C301   1.445       .  S
C298        C299   1.408       .  A
C299        H312   1.084       .  S
C299        C300   1.405       .  A
C300        C302   1.444       .  S
C301        N305   1.158       .  T
C302        N306   1.157       .  T
C303        N308   1.157       .  T
C304        N307   1.157       .  T
C313        C314   1.409       .  A
C313        C318   1.403       .  A
C313        C327   1.444       .  S
C314        C319   1.493       .  S
C314        C315   1.404       .  A
C315        H334   1.085       .  S
C315        C316   1.406       .  A
C316        C317   1.417       .  A
C316        C328   1.443       .  S
C317        C318   1.410       .  A
C318        H333   1.084       .  S
C319        C320   1.401       .  A
C319        C324   1.413       .  A
C320        H335   1.085       .  S
C320        C321   1.403       .  A
C321        C322   1.421       .  A
C321        C325   1.445       .  S
C322        C323   1.407       .  A
C323        H336   1.084       .  S
C323        C324   1.404       .  A
C324        C326   1.444       .  S
C325        N329   1.157       .  T
C326        N330   1.157       .  T
C327        N332   1.157       .  T
C328        N331   1.157       .  T
C337        C338   1.409       .  A
C337        C342   1.401       .  A
C337        C831   1.444       .  S
C338        C823   1.488       .  S
C338        C339   1.403       .  A
C339        H358   1.085       .  S
C339        C340   1.402       .  A
C340        C341   1.417       .  A
C340        C352   1.444       .  S
C341        C342   1.409       .  A
C342        H357   1.085       .  S
C343        C818   1.489   1_455  S
C343        C344   1.404       .  A
C343        C348   1.409       .  A
C344        H359   1.085       .  S
C344        C345   1.404       .  A
C345        C346   1.417       .  A
C345        C349   1.444       .  S
C346        C347   1.410       .  A
C347        H360   1.085       .  S
C347        C348   1.400       .  A
C348        C830   1.444   1_455  S
C349        N353   1.157       .  T
C350        C828   1.444       .  S
C350        N354   1.157       .  T
C351        C817   1.444       .  S
C351        N356   1.157       .  T
C352        N355   1.157       .  T
C361        C362   1.412       .  A
C361        C366   1.402       .  A
C361        C375   1.444       .  S
C362        C847   1.487       .  S
C362        C363   1.401       .  A
C363        H862   1.085       .  S
C363        C364   1.400       .  A
C364        C365   1.418       .  A
C364        C376   1.445       .  S
C365        C366   1.406       .  A
C366        H381   1.084       .  S
C367        C842   1.487       .  S
C367        C368   1.403   1_655  A
C367        C372   1.410       .  A
C368        H863   1.085       .  S
C368        C369   1.402       .  A
C369        C370   1.416       .  A
C369        C373   1.444       .  S
C370        C371   1.407       .  A
C371        H384   1.085       .  S
C371        C372   1.400   1_455  A
C372        C374   1.444       .  S
C373        N377   1.157       .  T
C374        N378   1.157       .  T
C375        N380   1.157       .  T
C376        N379   1.157       .  T
H382        C843   1.085   1_455  S
H383        C848   1.085       .  S
C385        C386   1.408       .  A
C385        C390   1.399       .  A
C385        C399   1.444       .  S
C386        C391   1.483       .  S
C386        C387   1.402       .  A
C387        H406   1.085       .  S
C387        C388   1.401       .  A
C388        C389   1.417       .  A
C388        C400   1.444       .  S
C389        C390   1.408       .  A
C390        H405   1.084       .  S
C391        C392   1.402       .  A
C391        C396   1.406       .  A
C392        H407   1.085       .  S
C392        C393   1.402       .  A
C393        C394   1.419       .  A
C393        C397   1.443       .  S
C394        C395   1.410       .  A
C395        H408   1.084       .  S
C395        C396   1.398       .  A
C396        C398   1.444       .  S
C397        N401   1.157       .  T
C398        N402   1.157       .  T
C399        N404   1.157       .  T
C400        N403   1.157       .  T
C409        C410   1.411       .  A
C409        C414   1.405       .  A
C409        C423   1.443       .  S
C410        C415   1.490       .  S
C410        C411   1.402       .  A
C411        H430   1.085       .  S
C411        C412   1.404       .  A
C412        C413   1.416       .  A
C412        C424   1.445       .  S
C413        C414   1.405       .  A
C414        H429   1.084       .  S
C415        C416   1.401       .  A
C415        C420   1.408       .  A
C416        H431   1.085       .  S
C416        C417   1.405       .  A
C417        C418   1.423       .  A
C417        C421   1.444       .  S
C418        C419   1.411       .  A
C419        H432   1.084       .  S
C419        C420   1.403       .  A
C420        C422   1.444       .  S
C421        N425   1.158       .  T
C422        N426   1.157       .  T
C423        N428   1.157       .  T
C424        N427   1.157       .  T
C433        C434   1.408       .  A
C433        C438   1.395       .  A
C433        C447   1.445   1_545  S
C434        C919   1.475   1_445  S
C434        C915   1.402   1_456  A
C435        H454   1.085       .  S
C435        C914   1.402   1_554  A
C435        C916   1.398       .  A
C436        C437   1.411   1_554  A
C436        C915   1.398   1_455  A
C436        C928   1.444   1_455  S
C437        C438   1.404       .  A
C438        H453   1.085       .  S
C439        C914   1.475   1_565  S
C439        C444   1.407       .  A
C439        C920   1.399   1_556  A
C440        H455   1.085       .  S
C440        C919   1.399   1_554  A
C440        C921   1.397       .  A
C441        C442   1.417       .  A
C441        C920   1.397       .  A
C441        C925   1.444       .  S
C442        C443   1.408   1_554  A
C443        H456   1.085       .  S
C443        C444   1.396       .  A
C444        C446   1.445       .  S
C445        C921   1.444       .  S
C445        N449   1.157       .  T
C446        N450   1.157       .  T
C447        N452   1.157       .  T
C448        C916   1.444       .  S
C448        N451   1.157       .  T
C457        C458   1.409       .  A
C457        C462   1.396       .  A
C457        C471   1.445       .  S
C458        C463   1.478   1_554  S
C458        C459   1.401   1_554  A
C459        H478   1.085       .  S
C459        C460   1.398       .  A
C460        C461   1.415   1_556  A
C460        C472   1.445       .  S
C461        C462   1.404       .  A
C462        H477   1.085       .  S
C463        C464   1.400   1_556  A
C463        C468   1.409       .  A
C464        H479   1.085       .  S
C464        C465   1.395       .  A
C465        C466   1.415   1_554  A
C465        C469   1.445       .  S
C466        C467   1.406       .  A
C467        H480   1.085       .  S
C467        C468   1.398       .  A
C468        C470   1.444       .  S
C469        N473   1.157       .  T
C470        N474   1.157       .  T
C471        N476   1.157       .  T
C472        N475   1.157       .  T
O481       Mg483   2.142   1_554  S
O481       Mg489   2.147       .  S
O481        C516   1.237       .  S
C482        O495   1.237       .  S
C482        O519   1.270       .  A
C482        H521   1.081       .  S
Mg483       O512   2.151       .  S
Mg483       O527   2.274       .  S
Mg483       O523   2.257       .  S
Mg483       O494   2.287       .  S
O484       Mg526   2.150       .  S
O484       Mg509   2.139       .  S
O484        C505   1.238       .  S
O485        C516   1.271       .  A
O485       Mg509   2.301       .  S
C486        O488   1.275       .  A
C486        O500   1.275       .  A
C486        C826   1.494       .  S
O487        C515   1.273   1_554  A
O487       Mg489   2.305       .  S
O488       Mg520   2.287       .  S
Mg489       O495   2.123       .  S
Mg489       O503   2.257       .  S
Mg489       O491   2.327       .  S
C490        O528   1.268       .  A
C490        O496   1.274   1_556  A
C490        C917   1.471       .  S
O491        C498   1.279       .  A
H492        C505   1.081       .  S
C493        O507   1.236       .  S
C493        O508   1.270       .  A
C493        H518   1.082       .  S
O494        C517   1.269       .  A
O495       Mg509   2.141       .  S
O496       Mg526   2.295       .  S
C497        O510   1.273       .  A
C497        O502   1.277       .  A
C497        C850   1.487       .  S
C498        O525   1.274       .  A
C498        C898   1.503       .  S
Mg499       O506   2.108       .  S
Mg499       O507   2.148       .  S
Mg499       O500   2.293       .  S
Mg499       O501   2.298       .  S
Mg499       O528   2.232       .  S
O501        C505   1.272   1_556  A
O502       Mg509   2.316       .  S
O503        C522   1.272       .  A
O504        C524   1.276       .  A
O504       Mg520   2.309       .  S
O506       Mg520   2.144       .  S
O506        C517   1.236       .  S
O507       Mg526   2.135   1_556  S
O508       Mg520   2.297       .  S
Mg509       O525   2.278       .  S
O510       Mg526   2.257       .  S
H511        C516   1.082       .  S
O512       Mg520   2.140       .  S
O512        C515   1.239       .  S
H513        C515   1.081       .  S
H514        C517   1.081       .  S
O519       Mg526   2.295       .  S
C522        O527   1.271   1_554  A
C522        C941   1.476       .  S
O523        C524   1.273       .  A
C524        C869   1.487       .  S
O529       Mg531   2.152   1_554  S
O529       Mg537   2.148       .  S
O529        C564   1.237       .  S
C530        O543   1.236       .  S
C530        O567   1.269       .  A
C530        H569   1.081       .  S
Mg531       O560   2.146       .  S
Mg531       O575   2.283       .  S
Mg531       O571   2.275       .  S
Mg531       O542   2.292       .  S
O532       Mg574   2.147       .  S
O532       Mg557   2.140       .  S
O532        C553   1.240       .  S
O533        C564   1.272       .  A
O533       Mg557   2.306       .  S
C534        O536   1.276       .  A
C534        O548   1.276       .  A
C534        C773   1.498       .  S
O535        C563   1.274   1_554  A
O535       Mg537   2.303       .  S
O536       Mg568   2.287       .  S
Mg537       O543   2.122       .  S
Mg537       O551   2.248       .  S
Mg537       O539   2.308       .  S
C538        O576   1.270       .  A
C538        O544   1.271   1_556  A
C538        C946   1.477       .  S
O539        C546   1.276       .  A
H540        C553   1.081       .  S
C541        O555   1.237       .  S
C541        O556   1.272       .  A
C541        H566   1.082       .  S
O542        C565   1.269       .  A
O543       Mg557   2.144       .  S
O544       Mg574   2.274       .  S
C545        O558   1.273       .  A
C545        O550   1.281       .  A
C545        C797   1.497       .  S
C546        O573   1.277       .  A
C546        C754   1.495       .  S
Mg547       O554   2.123       .  S
Mg547       O555   2.149       .  S
Mg547       O548   2.311       .  S
Mg547       O549   2.307       .  S
Mg547       O576   2.251       .  S
O549        C553   1.274   1_556  A
O550       Mg557   2.349       .  S
O551        C570   1.269       .  A
O552        C572   1.280       .  A
O552       Mg568   2.344       .  S
O554       Mg568   2.143       .  S
O554        C565   1.236       .  S
O555       Mg574   2.152   1_556  S
O556       Mg568   2.308       .  S
Mg557       O573   2.289       .  S
O558       Mg574   2.264       .  S
H559        C564   1.082       .  S
O560       Mg568   2.137       .  S
O560        C563   1.240       .  S
H561        C563   1.081       .  S
H562        C565   1.081       .  S
O567       Mg574   2.289       .  S
C570        O575   1.273   1_554  A
C570        C922   1.481       .  S
O571        C572   1.275       .  A
C572        C725   1.498       .  S
O577       Mg579   2.144       .  S
O577       Mg585   2.148       .  S
O577        C612   1.237       .  S
C578        O591   1.237       .  S
C578        O615   1.270       .  A
C578        H617   1.081       .  S
Mg579       O608   2.150       .  S
Mg579       O623   2.269       .  S
Mg579       O619   2.263       .  S
Mg579       O590   2.286       .  S
O580       Mg622   2.143       .  S
O580       Mg605   2.135       .  S
O580        C601   1.239       .  S
O581        C612   1.272       .  A
O581       Mg605   2.309       .  S
C582        O584   1.274       .  A
C582        O596   1.277       .  A
C582        C874   1.492       .  S
O583        C611   1.272       .  A
O583       Mg585   2.301       .  S
O584       Mg616   2.277       .  S
Mg585       O591   2.129       .  S
Mg585       O599   2.264       .  S
Mg585       O587   2.294       .  S
C586        O624   1.271       .  A
C586        O592   1.272       .  A
C586        C701   1.474       .  S
O587        C594   1.274       .  A
H588        C601   1.081       .  S
C589        O603   1.237       .  S
C589        O604   1.270       .  A
C589        H614   1.082       .  S
O590        C613   1.268       .  A
O591       Mg605   2.143       .  S
O592       Mg622   2.279       .  S
C593        O606   1.272       .  A
C593        O598   1.280       .  A
C593        C893   1.487       .  S
C594        O621   1.275       .  A
C594        C845   1.488       .  S
Mg595       O602   2.116       .  S
Mg595       O603   2.152       .  S
Mg595       O596   2.299       .  S
Mg595       O597   2.298       .  S
Mg595       O624   2.256       .  S
O597        C601   1.272       .  A
O598       Mg605   2.346       .  S
O599        C618   1.271       .  A
O600        C620   1.277       .  A
O600       Mg616   2.320       .  S
O602       Mg616   2.146       .  S
O602        C613   1.236       .  S
O603       Mg622   2.138       .  S
O604       Mg616   2.298       .  S
Mg605       O621   2.279       .  S
O606       Mg622   2.261       .  S
H607        C612   1.082       .  S
O608       Mg616   2.132       .  S
O608        C611   1.239       .  S
H609        C611   1.081       .  S
H610        C613   1.081       .  S
O615       Mg622   2.296       .  S
C618        O623   1.272       .  A
C618        C677   1.480       .  S
O619        C620   1.273       .  A
C620        C821   1.492       .  S
O625       Mg627   2.136       .  S
O625       Mg633   2.144       .  S
O625        C660   1.236       .  S
C626        O639   1.236       .  S
C626        O663   1.269       .  A
C626        H665   1.081       .  S
Mg627       O656   2.145       .  S
Mg627       O671   2.282       .  S
Mg627       O667   2.249       .  S
Mg627       O638   2.292       .  S
O628       Mg670   2.152       .  S
O628       Mg653   2.147       .  S
O628        C649   1.240       .  S
O629        C660   1.270       .  A
O629       Mg653   2.299       .  S
C630        O632   1.276       .  A
C630        O644   1.278       .  A
C630        C730   1.498       .  S
O631        C659   1.274       .  A
O631       Mg633   2.304       .  S
O632       Mg664   2.288       .  S
Mg633       O639   2.121       .  S
Mg633       O647   2.257       .  S
Mg633       O635   2.303       .  S
C634        O672   1.271       .  A
C634        O640   1.272       .  A
C634        C682   1.475       .  S
O635        C642   1.276       .  A
H636        C649   1.081       .  S
C637        O651   1.237       .  S
C637        O652   1.272       .  A
C637        H662   1.082       .  S
O638        C661   1.270       .  A
O639       Mg653   2.148       .  S
O640       Mg670   2.281       .  S
C641        O654   1.273       .  A
C641        O646   1.280       .  A
C641        C749   1.493       .  S
C642        O669   1.278       .  A
C642        C802   1.495       .  S
Mg643       O650   2.126       .  S
Mg643       O651   2.148       .  S
Mg643       O644   2.322       .  S
Mg643       O645   2.307       .  S
Mg643       O672   2.251       .  S
O645        C649   1.274       .  A
O646       Mg653   2.335       .  S
O647        C666   1.270       .  A
O648        C668   1.282       .  A
O648       Mg664   2.352       .  S
O650       Mg664   2.144       .  S
O650        C661   1.237       .  S
O651       Mg670   2.152       .  S
O652       Mg664   2.308       .  S
Mg653       O669   2.297       .  S
O654       Mg670   2.261       .  S
H655        C660   1.082       .  S
O656       Mg664   2.141       .  S
O656        C659   1.240       .  S
H657        C659   1.081       .  S
H658        C661   1.081       .  S
O663       Mg670   2.288       .  S
C666        O671   1.273       .  A
C666        C706   1.484       .  S
O667        C668   1.271       .  A
C668        C778   1.499       .  S
C673        C674   1.408       .  A
C673        C678   1.394       .  A
C673        C687   1.445       .  S
C675        H694   1.085       .  S
C676        C677   1.415       .  A
C677        C678   1.407       .  A
C678        H693   1.085       .  S
C679        C684   1.409       .  A
C680        H695   1.085   1_455  S
C681        C682   1.414       .  A
C682        C683   1.404       .  A
C683        H696   1.085       .  S
C683        C684   1.396       .  A
C684        C686   1.444   1_565  S
C685        N689   1.157   1_455  T
C686        N690   1.157       .  T
C687        N692   1.157       .  T
C688        N691   1.157       .  T
C697        C698   1.411       .  A
C697        C702   1.398       .  A
C697        C711   1.445       .  S
C698        C703   1.480       .  S
C698        C699   1.402       .  A
C699        H718   1.085       .  S
C699        C700   1.398       .  A
C700        C701   1.412       .  A
C700        C712   1.444       .  S
C701        C702   1.404       .  A
C702        H717   1.085       .  S
C703        C704   1.402       .  A
C703        C708   1.408       .  A
C704        H719   1.085       .  S
C704        C705   1.400       .  A
C705        C706   1.417       .  A
C705        C709   1.444       .  S
C706        C707   1.408       .  A
C707        H720   1.085       .  S
C707        C708   1.396       .  A
C708        C710   1.445       .  S
C709        N713   1.157       .  T
C710        N714   1.157       .  T
C711        N716   1.157       .  T
C712        N715   1.157       .  T
C721        C722   1.409       .  A
C721        C726   1.404       .  A
C722        C723   1.404       .  A
C723        H742   1.085       .  S
C723        C724   1.407       .  A
C724        C725   1.418       .  A
C724        C736   1.444       .  S
C725        C726   1.410       .  A
C726        H741   1.085       .  S
C727        C728   1.404       .  A
C727        C732   1.409       .  A
C728        H743   1.085       .  S
C728        C729   1.406       .  A
C729        C730   1.418       .  A
C729        C733   1.444       .  S
C730        C731   1.410       .  A
C731        H744   1.084       .  S
C731        C732   1.404       .  A
C733        N737   1.157       .  T
C734        N738   1.157       .  T
C735        N740   1.157       .  T
C736        N739   1.157       .  T
C745        C746   1.409       .  A
C745        C750   1.402       .  A
C745        C759   1.444       .  S
C746        C747   1.403       .  A
C747        C748   1.404       .  A
C748        C749   1.417       .  A
C748        C760   1.444       .  S
C749        C750   1.410       .  A
C750        H765   1.085       .  S
C751        C752   1.401       .  A
C751        C756   1.411       .  A
C752        C753   1.403       .  A
C753        C754   1.420       .  A
C753        C757   1.444       .  S
C754        C755   1.407       .  A
C755        H768   1.084       .  S
C755        C756   1.403       .  A
C756        C758   1.444       .  S
C757        N761   1.157       .  T
C758        N762   1.157       .  T
C759        N764   1.157       .  T
C760        N763   1.157       .  T
C769        C770   1.411       .  A
C769        C774   1.404       .  A
C769        C783   1.444       .  S
C770        C775   1.493       .  S
C770        C771   1.401       .  A
C771        H790   1.085       .  S
C771        C772   1.403       .  A
C772        C773   1.422       .  A
C772        C784   1.444       .  S
C773        C774   1.409       .  A
C774        H789   1.084       .  S
C775        C776   1.400       .  A
C775        C780   1.412       .  A
C776        H791   1.085       .  S
C776        C777   1.402       .  A
C777        C778   1.423       .  A
C777        C781   1.445       .  S
C778        C779   1.408       .  A
C779        H792   1.084       .  S
C779        C780   1.405       .  A
C780        C782   1.444       .  S
C781        N785   1.158       .  T
C782        N786   1.157       .  T
C783        N788   1.157       .  T
C784        N787   1.157       .  T
C793        C794   1.409       .  A
C793        C798   1.403       .  A
C793        C807   1.444       .  S
C794        C799   1.493       .  S
C794        C795   1.404       .  A
C795        H814   1.085       .  S
C795        C796   1.406       .  A
C796        C797   1.417       .  A
C796        C808   1.443       .  S
C797        C798   1.410       .  A
C798        H813   1.084       .  S
C799        C800   1.401       .  A
C799        C804   1.413       .  A
C800        H815   1.085       .  S
C800        C801   1.403       .  A
C801        C802   1.421       .  A
C801        C805   1.445       .  S
C802        C803   1.407       .  A
C803        H816   1.084       .  S
C803        C804   1.405       .  A
C804        C806   1.444       .  S
C805        N809   1.157       .  T
C806        N810   1.157       .  T
C807        N812   1.157       .  T
C808        N811   1.157       .  T
C817        C818   1.410   1_455  A
C817        C822   1.401   1_455  A
C818        C819   1.403       .  A
C819        H838   1.085       .  S
C819        C820   1.402       .  A
C820        C821   1.417       .  A
C820        C832   1.444       .  S
C821        C822   1.409       .  A
C822        H837   1.085       .  S
C823        C824   1.403       .  A
C823        C828   1.408       .  A
C824        H839   1.085       .  S
C824        C825   1.403       .  A
C825        C826   1.418       .  A
C825        C829   1.443       .  S
C826        C827   1.411       .  A
C827        H840   1.084       .  S
C827        C828   1.400       .  A
C829        N833   1.157       .  T
C830        N834   1.157       .  T
C831        N836   1.157       .  T
C832        N835   1.157       .  T
C841        C842   1.412       .  A
C841        C846   1.402       .  A
C841        C855   1.444       .  S
C842        C843   1.401       .  A
C843        C844   1.400       .  A
C844        C845   1.418       .  A
C844        C856   1.445       .  S
C845        C846   1.406       .  A
C846        H861   1.084       .  S
C847        C848   1.403       .  A
C847        C852   1.410       .  A
C848        C849   1.402       .  A
C849        C850   1.416       .  A
C849        C853   1.444       .  S
C850        C851   1.407       .  A
C851        H864   1.085       .  S
C851        C852   1.400       .  A
C852        C854   1.444       .  S
C853        N857   1.157       .  T
C854        N858   1.157       .  T
C855        N860   1.157       .  T
C856        N859   1.157       .  T
C865        C866   1.408       .  A
C865        C870   1.399       .  A
C865        C879   1.444       .  S
C866        C871   1.483       .  S
C866        C867   1.402       .  A
C867        H886   1.085       .  S
C867        C868   1.401       .  A
C868        C869   1.417       .  A
C868        C880   1.444       .  S
C869        C870   1.408       .  A
C870        H885   1.084       .  S
C871        C872   1.402       .  A
C871        C876   1.406       .  A
C872        H887   1.085       .  S
C872        C873   1.402       .  A
C873        C874   1.419       .  A
C873        C877   1.444       .  S
C874        C875   1.410       .  A
C875        H888   1.084       .  S
C875        C876   1.398       .  A
C876        C878   1.444       .  S
C877        N881   1.157       .  T
C878        N882   1.157       .  T
C879        N884   1.157       .  T
C880        N883   1.157       .  T
C889        C890   1.411       .  A
C889        C894   1.405       .  A
C889        C903   1.443       .  S
C890        C895   1.490       .  S
C890        C891   1.402       .  A
C891        H910   1.085       .  S
C891        C892   1.404       .  A
C892        C893   1.416       .  A
C892        C904   1.445       .  S
C893        C894   1.405       .  A
C894        H909   1.084       .  S
C895        C896   1.401       .  A
C895        C900   1.408       .  A
C896        H911   1.085       .  S
C896        C897   1.405       .  A
C897        C898   1.423       .  A
C897        C901   1.444       .  S
C898        C899   1.411       .  A
C899        H912   1.084       .  S
C899        C900   1.403       .  A
C900        C902   1.444       .  S
C901        N905   1.158       .  T
C902        N906   1.157       .  T
C903        N908   1.157       .  T
C904        N907   1.157       .  T
C913        C914   1.409       .  A
C913        C918   1.395       .  A
C913        C927   1.445   1_545  S
C915        H934   1.085       .  S
C916        C917   1.411   1_554  A
C917        C918   1.404       .  A
C918        H933   1.085       .  S
C919        C924   1.407       .  A
C920        H935   1.085       .  S
C921        C922   1.417       .  A
C922        C923   1.408   1_554  A
C923        H936   1.085       .  S
C923        C924   1.396       .  A
C924        C926   1.445       .  S
C925        N929   1.157       .  T
C926        N930   1.157       .  T
C927        N932   1.157       .  T
C928        N931   1.157       .  T
C937        C938   1.409       .  A
C937        C942   1.396       .  A
C937        C951   1.445       .  S
C938        C943   1.477   1_554  S
C938        C939   1.401   1_554  A
C939        H958   1.085       .  S
C939        C940   1.398       .  A
C940        C941   1.415   1_556  A
C940        C952   1.445       .  S
C941        C942   1.404       .  A
C942        H957   1.085       .  S
C943        C944   1.400   1_556  A
C943        C948   1.409       .  A
C944        H959   1.085       .  S
C944        C945   1.395       .  A
C945        C946   1.416   1_554  A
C945        C949   1.445       .  S
C946        C947   1.406       .  A
C947        H960   1.085       .  S
C947        C948   1.398       .  A
C948        C950   1.444       .  S
C949        N953   1.157       .  T
C950        N954   1.157       .  T
C951        N956   1.157       .  T
C952        N955   1.157       .  T
