geometry optimzed in LAMMPS
_audit_creation_date              2020-11-30 
_audit_creation_method            'lammps2cif' 
_symmetry_space_group_name_H-M    'P1' 
_symmetry_Int_Tables_number       1 
_symmetry_cell_setting            triclinic 
loop_ 
_symmetry_equiv_pos_as_xyz 
  x,y,z 
_cell_length_a                    36.74215908 
_cell_length_b                    37.27132930140102 
_cell_length_c                    35.95459787343724 
_cell_angle_alpha                 89.39835144470715 
_cell_angle_beta                  87.4184646819441 
_cell_angle_gamma                 89.82023262219333 
loop_ 
_atom_site_label 
_atom_site_type_symbol 
_atom_site_fract_x 
_atom_site_fract_y 
_atom_site_fract_z 
_atom_site_charge 
C1          C  0.87799246  0.37112900  0.19880433     0.31000
C2          C  0.87989107  0.36938279  0.02782848     0.31000
C3          C  0.90057128  0.40078883  0.21703953    -0.05200
C4          C  0.84073965  0.37049225  0.21998907    -0.06000
C5          C  0.89659713  0.33857019  0.21806390    -0.05800
C6          C  0.90373522  0.39805069  0.00658202    -0.05200
C7          C  0.84322076  0.36930940  0.00946297    -0.06000
C8          C  0.89800700  0.33584159  0.00851490    -0.05800
C9          C  0.93930759  0.40782136  0.01498539    -0.31200
N10         N  0.95561998  0.42012542  0.23447312     0.15300
C11         C  0.93623312  0.41046320  0.20561327    -0.31200
H12         H  0.94911194  0.40696256  0.17835098     0.17200
C13         C  0.81268003  0.35007949  0.02185391    -0.30200
N14         N  0.79335528  0.34028589  0.99303609     0.14000
C15         C  0.81014228  0.35107142  0.21092751    -0.30200
C16         C  0.92322524  0.31059627  0.01899324    -0.30500
N17         N  0.93654157  0.29320468  0.98839857     0.14500
H18         H  0.93218057  0.30558888  0.04678726     0.17100
C19         C  0.92322205  0.31435756  0.20662383    -0.30500
H20         H  0.93252436  0.30874242  0.17833406     0.17100
H21         H  0.80382265  0.34182429  0.18360008     0.17100
H22         H  0.95138293  0.40571188  0.04171045     0.17200
H23         H  0.80604925  0.34113121  0.05001128     0.17100
C24         C  0.87434926  0.37306690  0.07400645     0.31000
C25         C  0.87425537  0.37375371  0.15282709     0.31000
C26         C  0.89907446  0.40101457  0.09192675    -0.05200
C27         C  0.83754062  0.38471193  0.09509175    -0.06000
C28         C  0.88139828  0.33730487  0.09424694    -0.05800
C29         C  0.89900562  0.40149345  0.13144782    -0.05200
C30         C  0.83788677  0.38513716  0.13479478    -0.06000
C31         C  0.88153797  0.33752155  0.13335888    -0.05800
C32         C  0.90280776  0.43781595  0.14018827    -0.31200
N33         N  0.90968063  0.45804771  0.10962523     0.15300
C34         C  0.90299801  0.43694557  0.08081704    -0.31200
H35         H  0.89813445  0.44824542  0.05375996     0.17200
C36         C  0.80685724  0.40336128  0.14703969    -0.30200
N37         N  0.78614532  0.41097773  0.11784033     0.14000
C38         C  0.80522854  0.40177258  0.08604700    -0.30200
C39         C  0.87106194  0.30306169  0.14498490    -0.30500
N40         N  0.86714197  0.28188107  0.11523913     0.14500
H41         H  0.86349137  0.29469054  0.17312323     0.17100
C42         C  0.87011778  0.30311198  0.08482031    -0.30500
H43         H  0.86225201  0.29455666  0.05770487     0.17100
H44         H  0.79672951  0.40850411  0.05845201     0.17100
H45         H  0.89760699  0.44998018  0.16697844     0.17200
H46         H  0.79967906  0.41120389  0.17528575     0.17100
C47         C  0.36907444  0.02711262  0.05584909     0.31000
C48         C  0.36884692  0.02639506  0.22706509     0.31000
C49         C  0.39516219  0.99971895  0.03551208    -0.05200
C50         C  0.33222497  0.02372295  0.03772254    -0.06000
C51         C  0.38427733  0.06170107  0.03477084    -0.05800
C52         C  0.39428216  0.99935257  0.24591332    -0.05200
C53         C  0.33186555  0.02364981  0.24822358    -0.06000
C54         C  0.38393563  0.06074442  0.24558481    -0.05800
C55         C  0.43055886  0.99302504  0.23436234    -0.31200
N56         N  0.45203137  0.98521127  0.01273089     0.15300
C57         C  0.43161448  0.99266161  0.04365125    -0.31200
H58         H  0.44384336  0.99593341  0.07011595     0.17200
C59         C  0.30017657  0.04082964  0.23843827    -0.30200
N60         N  0.27957944  0.04736722  0.01942651     0.14000
C61         C  0.29965529  0.04040003  0.04896222    -0.30200
C62         C  0.40575159  0.08881598  0.23333255    -0.30500
N63         N  0.41769220  0.10774930  0.01119008     0.14500
H64         H  0.41496485  0.09404778  0.20488154     0.17100
C65         C  0.40628509  0.09058768  0.04313903    -0.30500
H66         H  0.41433670  0.09835148  0.07044595     0.17100
H67         H  0.29202275  0.04953181  0.07666520     0.17100
H68         H  0.44267932  0.99729344  0.20681044     0.17200
H69         H  0.29443010  0.05062963  0.21095879     0.17100
C70         C  0.36492840  0.02274044  0.18114026     0.31000
C71         C  0.36420338  0.02322827  0.10220824     0.31000
C72         C  0.39201263  0.99734161  0.16013079    -0.05200
C73         C  0.32962208  0.00820830  0.16368148    -0.06000
C74         C  0.36835896  0.05908716  0.16084987    -0.05800
C75         C  0.39145024  0.99746940  0.12056311    -0.05200
C76         C  0.32869410  0.00870398  0.12396617    -0.06000
C77         C  0.36843826  0.05934642  0.12166338    -0.05800
C78         C  0.39803824  0.96184229  0.11048042    -0.31200
N79         N  0.40695840  0.94175685  0.13976878     0.15300
C80         C  0.39926874  0.96169694  0.16989028    -0.31200
H81         H  0.39594266  0.94952613  0.19715374     0.17200
C82         C  0.29733872  0.98985276  0.11580664    -0.30200
N83         N  0.27950612  0.97937953  0.14808628     0.14000
C84         C  0.30015210  0.98809869  0.17675483    -0.30200
C85         C  0.35423964  0.09244021  0.11167272    -0.30500
N86         N  0.34833031  0.11274936  0.14211196     0.14500
H87         H  0.34588706  0.10038345  0.08436315     0.17100
C88         C  0.35358424  0.09180967  0.17192541    -0.30500
H89         H  0.34528407  0.09959632  0.19990148     0.17100
H90         H  0.29385766  0.97993484  0.20524001     0.17100
H91         H  0.39365325  0.94984298  0.08390178     0.17200
H92         H  0.28862831  0.98281122  0.08854312     0.17100
C93         C  0.51931774  0.87370853  0.04890278     0.31000
C94         C  0.51481750  0.87357961  0.22036375     0.31000
C95         C  0.49786616  0.90502899  0.03000084    -0.01200
C96         C  0.55632188  0.87913885  0.02684605    -0.06000
C97         C  0.50723515  0.83964313  0.02987178    -0.05800
C98         C  0.49537534  0.90510253  0.24101180    -0.05200
C99         C  0.55341564  0.87919088  0.23751403    -0.06000
C100        C  0.49710338  0.84201461  0.24304142    -0.05800
C101        C  0.48823791  0.94033274  0.23089283    -0.31200
N102        N  0.48120103  0.96016853  0.01079847     0.15300
C103        C  0.49115078  0.94039057  0.04036811    -0.31200
H104        H  0.49315130  0.95155720  0.06775240     0.17200
C105        C  0.58270573  0.90080634  0.22527317    -0.30200
N106        N  0.60603693  0.90744994  0.00320198     0.14000
C107        C  0.58755486  0.89795483  0.03503252    -0.30200
C108        C  0.48254894  0.80920181  0.23514354    -0.30500
N109        N  0.49863088  0.78474666  0.00894147     0.14500
H110        H  0.46389212  0.80326584  0.21373709     0.17100
C111        C  0.51616029  0.80365761  0.03431674    -0.30500
H112        H  0.53194775  0.79191459  0.05606161     0.17100
H113        H  0.59537652  0.90652176  0.06214114     0.17100
H114        H  0.48859353  0.95144247  0.20306422     0.17200
H115        H  0.58801759  0.91111351  0.19736797     0.17100
C116        C  0.51434515  0.86873086  0.17405377     0.31000
C117        C  0.51416823  0.86968286  0.09523878     0.31000
C118        C  0.49000999  0.89696133  0.15534297    -0.05200
C119        C  0.55140185  0.87070137  0.15297873    -0.06000
C120        C  0.50056158  0.83393686  0.15501534    -0.05800
C121        C  0.49039300  0.89798507  0.11576866    -0.05200
C122        C  0.55139756  0.87040648  0.11350922    -0.06000
C123        C  0.49620537  0.83616539  0.11589733    -0.05800
C124        C  0.45500457  0.90767927  0.10715823    -0.31200
N125        N  0.43476372  0.91543581  0.13808664     0.15300
C126        C  0.45448627  0.90575578  0.16707053    -0.31200
H127        H  0.44259827  0.90311072  0.19496022     0.17200
C128        C  0.58184435  0.85027309  0.10233538    -0.30200
N129        N  0.60131757  0.84138142  0.13159957     0.14000
C130        C  0.58182543  0.85092276  0.16226603    -0.30200
C131        C  0.48281233  0.80339905  0.10598111    -0.30500
N132        N  0.49084300  0.77927932  0.13234000     0.14500
H133        H  0.46854817  0.79687912  0.08140766     0.17100
C134        C  0.50550822  0.79730188  0.16036912    -0.30500
H135        H  0.52018051  0.78454244  0.18231425     0.17100
H136        H  0.58736009  0.84032875  0.18947109     0.17100
H137        H  0.44339292  0.90647313  0.08015943     0.17200
H138        H  0.58826670  0.83986524  0.07490817     0.17100
C139        C  0.02477169  0.52899928  0.18958065     0.31000
C140        C  0.02956747  0.52492817  0.01825603     0.31000
C141        C  0.00309015  0.49953227  0.21113254    -0.05200
C142        C  0.06265176  0.52474382  0.20762449    -0.06000
C143        C  0.01379112  0.56477463  0.20884074    -0.05800
C144        C  0.00578594  0.49679173  0.99994263    -0.05200
C145        C  0.06712513  0.51719782  0.99678780    -0.06000
C146        C  0.02124225  0.56123427  0.99841132    -0.05800
C147        C  0.99725748  0.46190460  0.01138479    -0.31200
N148        N  0.98767587  0.44218059  0.98218527     0.15300
C149        C  0.99373332  0.46479685  0.20164509    -0.31200
H150        H  0.99424789  0.45360390  0.17409671     0.17200
C151        C  0.10344256  0.52263495  0.00485899    -0.30200
N152        N  0.12424739  0.52441307  0.97270378     0.14000
C153        C  0.09777601  0.53324340  0.19510889    -0.30200
C154        C  0.03483616  0.59518968  0.00709712    -0.30500
N155        N  0.03878781  0.61600594  0.97654922     0.14500
H156        H  0.04513151  0.60328852  0.03336617     0.17100
C157        C  0.02612808  0.59894163  0.19762533    -0.30500
H158        H  0.03713805  0.60677263  0.17044105     0.17100
H159        H  0.10690646  0.53869364  0.16659889     0.17100
H160        H  0.99860827  0.45095638  0.03919633     0.17200
H161        H  0.11384417  0.52751746  0.03198270     0.17100
C162        C  0.02331144  0.52470935  0.06462693     0.31000
C163        C  0.02061273  0.52712226  0.14360297     0.31000
C164        C  0.99088384  0.50432067  0.08569471    -0.05200
C165        C  0.05592615  0.50915644  0.08492599    -0.06000
C166        C  0.01546483  0.56172615  0.08281320    -0.05800
C167        C  0.98971068  0.50557612  0.12546416    -0.05200
C168        C  0.05411996  0.51026089  0.12397469    -0.06000
C169        C  0.01430176  0.56292947  0.12259423    -0.05800
C170        C  0.95453649  0.49647541  0.13722007    -0.31200
N171        N  0.93557994  0.48620260  0.10771123     0.15300
C172        C  0.95605225  0.49445906  0.07644540    -0.31200
H173        H  0.94594986  0.49291921  0.04878847     0.17200
C174        C  0.07523781  0.48214726  0.13606231    -0.30200
N175        N  0.09287521  0.46662341  0.10688937     0.14000
C176        C  0.07895697  0.48053427  0.07579582    -0.30200
C177        C  0.98648881  0.58729910  0.13186937    -0.30500
N178        N  0.97407256  0.60328573  0.10150309     0.14500
H179        H  0.97222735  0.58976555  0.15861928     0.17100
C180        C  0.98823121  0.58566316  0.07222574    -0.30500
H181        H  0.97607729  0.58760385  0.04550620     0.17100
H182        H  0.08418110  0.46919272  0.04856502     0.17100
H183        H  0.94340015  0.49649974  0.16553499     0.17200
H184        H  0.07599723  0.47196178  0.16421684     0.17100
O185        O  0.00397805  0.96898251  0.24183271    -0.73400
O186        O  0.90059253  0.95200401  0.25132566    -0.73400
O187        O  0.94536580  0.01058223  0.24926357    -0.73500
O188        O  0.96201917  0.90853695  0.24390774    -0.73500
O189        O  0.97065868  0.90179435  0.05486349    -0.73500
O190        O  0.94388364  0.00085002  0.05871537    -0.73500
O191        O  0.90646404  0.93792730  0.06000023    -0.73400
O192        O  0.00726702  0.96479621  0.05271950    -0.73500
Ni193      Ni  0.95263472  0.95982484  0.24427404     1.25400
Ni194      Ni  0.95702892  0.95118065  0.05851673     1.25400
C195        C  0.02291832  0.97129405  0.02102896     0.88800
C196        C  0.88876249  0.93598907  0.03041189     0.88700
C197        C  0.94589844  0.02573975  0.28093683     0.88700
C198        C  0.96622271  0.89053183  0.27394808     0.88900
O199        O  0.94031905  0.88751927  0.18036186    -0.73400
O200        O  0.91877889  0.98782094  0.18777886    -0.73400
O201        O  0.87951661  0.92565194  0.19113967    -0.73500
O202        O  0.98109118  0.94784380  0.17769124    -0.73500
O203        O  0.97406198  0.95146010  0.11706479    -0.73500
O204        O  0.87237278  0.92984063  0.13023846    -0.73500
O205        O  0.91177771  0.99136342  0.12695240    -0.73400
O206        O  0.93280564  0.89040560  0.11945756    -0.73500
Ni207      Ni  0.93014473  0.93736421  0.18642230     1.25400
Ni208      Ni  0.92276107  0.94105418  0.12128338     1.25400
C209        C  0.93887346  0.87228966  0.14892486     0.88800
C210        C  0.91142072  0.00619254  0.15886423     0.88700
C211        C  0.85974627  0.92270298  0.16317605     0.88700
C212        C  0.99459243  0.95249446  0.14472174     0.88900
O213        O  0.42118612  0.45775238  0.01717129    -0.73400
O214        O  0.52172101  0.42979923  0.00865667    -0.73400
O215        O  0.48526563  0.49378112  0.01222636    -0.73500
O216        O  0.45848794  0.39477258  0.01391053    -0.73500
O217        O  0.44297088  0.39813145  0.20549328    -0.73500
O218        O  0.47921967  0.49490612  0.20147748    -0.73500
O219        O  0.50893577  0.42809564  0.19815347    -0.73400
O220        O  0.41121285  0.46494160  0.20899088    -0.73500
Ni221      Ni  0.47165064  0.44419587  0.01490475     1.25400
Ni222      Ni  0.46038418  0.44670377  0.20126585     1.25400
C223        C  0.39728168  0.46964607  0.24182051     0.88800
C224        C  0.52762219  0.42201656  0.22641731     0.88700
C225        C  0.48902109  0.51054753  0.98109159     0.88700
C226        C  0.45397315  0.37820949  0.98371387     0.88900
O227        O  0.44195034  0.49816535  0.08125485    -0.73400
O228        O  0.42096537  0.39801423  0.07585705    -0.73400
O229        O  0.38071119  0.45779955  0.08312942    -0.73500
O230        O  0.48285624  0.43789493  0.07417972    -0.73500
O231        O  0.48555430  0.43664121  0.13526645    -0.73500
O232        O  0.38116046  0.44858220  0.14424236    -0.73500
O233        O  0.42589183  0.39201612  0.13684760    -0.73400
O234        O  0.43971978  0.49367139  0.14291786    -0.73500
Ni235      Ni  0.43166124  0.44813503  0.07665522     1.25400
Ni236      Ni  0.43327359  0.44262915  0.14216161     1.25400
C237        C  0.44397839  0.51250270  0.11315293     0.88800
C238        C  0.41962768  0.37861566  0.10525889     0.88700
C239        C  0.36384142  0.45474955  0.11475538     0.88700
C240        C  0.50143582  0.43482810  0.10301010     0.88900
C241        C  0.18579283  0.43833957  0.13845042     0.19700
C242        C  0.20773553  0.43825398  0.10541476    -0.18400
C243        C  0.24563935  0.43842732  0.10667636    -0.10700
C244        C  0.26257675  0.43893888  0.14097427     0.22000
C245        C  0.24080724  0.43665203  0.17393446    -0.20000
C246        C  0.20279931  0.43683232  0.17270834    -0.10800
C247        C  0.30279187  0.44124971  0.14294272    -0.15000
C248        C  0.32385428  0.45701445  0.11594956    -0.28900
C249        C  0.14592031  0.44526747  0.13859438    -0.03100
C250        C  0.12585329  0.44566775  0.10794941    -0.39700
H251        H  0.19601043  0.43943069  0.07847105     0.13100
H252        H  0.26155949  0.43824534  0.08067407     0.12700
H253        H  0.25318811  0.43621761  0.20072027     0.12200
H254        H  0.18664026  0.43705292  0.19866524     0.12400
H255        H  0.31534573  0.42955775  0.16706010     0.15200
H256        H  0.31159562  0.46946618  0.09211518     0.13900
H257        H  0.13387985  0.45508724  0.16463397     0.11600
H258        H  0.13710523  0.43531393  0.08182428     0.13600
C259        C  0.93470035  0.77305238  0.12135634     0.19700
C260        C  0.93872960  0.75350096  0.08829673    -0.18400
C261        C  0.94303861  0.71617268  0.08946161    -0.10700
C262        C  0.94274176  0.69776574  0.12391027     0.22000
C263        C  0.93677485  0.71718589  0.15675299    -0.20000
C264        C  0.93233582  0.75428069  0.15556595    -0.10800
C265        C  0.95314015  0.65950711  0.12740684    -0.15000
C266        C  0.95294596  0.63572333  0.09956500    -0.28900
C267        C  0.93333310  0.81286444  0.11954244    -0.03100
C268        C  0.94309555  0.83318475  0.14806768    -0.39700
H269        H  0.93999495  0.76728174  0.06159247     0.13100
H270        H  0.94835238  0.70230852  0.06350505     0.12700
H271        H  0.93639402  0.70366850  0.18360681     0.12200
H272        H  0.92737900  0.76800559  0.18165423     0.12400
H273        H  0.96463045  0.65150212  0.15354999     0.15200
H274        H  0.94166649  0.64313019  0.07317390     0.13900
H275        H  0.92460673  0.82568719  0.09414550     0.11600
H276        H  0.95249201  0.82078712  0.17321232     0.13600
C277        C  0.29697362  0.50144816  0.22876796     0.19700
C278        C  0.27743721  0.51627830  0.19957383    -0.18400
C279        C  0.24019388  0.52451270  0.20445308    -0.10700
C280        C  0.22133492  0.51824023  0.23897542     0.22000
C281        C  0.24104745  0.50394792  0.26827916    -0.20000
C282        C  0.27812093  0.49547896  0.26326723    -0.10800
C283        C  0.18095765  0.52330834  0.24514801    -0.15000
C284        C  0.15879361  0.53819130  0.22024774    -0.28900
C285        C  0.33612865  0.49078698  0.22151425    -0.03100
C286        C  0.35918760  0.48256162  0.24855078    -0.39700
H287        H  0.29970497  0.53247415  0.93160388     0.13100
H288        H  0.23453413  0.54374299  0.94082658     0.12700
H289        H  0.22746350  0.49843113  0.29508426     0.12200
H290        H  0.29133414  0.48314639  0.28625216     0.12400
H291        H  0.16852223  0.51203777  0.27063480     0.15200
H292        H  0.17491968  0.53746332  0.94228890     0.13900
H293        H  0.35484035  0.49351815  0.94127722     0.11600
H294        H  0.35011182  0.48533666  0.27741050     0.13600
C295        C  0.00158334  0.79518490  0.24666728     0.19700
C296        C  0.00709916  0.77558596  0.21365374    -0.18400
C297        C  0.01528008  0.73875434  0.21470967    -0.10700
C298        C  0.01904333  0.72071086  0.24899192     0.22000
C299        C  0.01542038  0.74071798  0.28181062    -0.20000
C300        C  0.00718879  0.77740581  0.28074216    -0.10800
C301        C  0.02332467  0.68088031  0.25227822    -0.15000
C302        C  0.03386120  0.65905801  0.22403023    -0.28900
C303        C  0.99053492  0.83396287  0.24469169    -0.03100
C304        C  0.97461873  0.85156499  0.27378897    -0.39700
H305        H  0.00428378  0.78853902  0.18687435     0.13100
H306        H  0.01733112  0.72450748  0.18866212     0.12700
H307        H  0.01842277  0.72774807  0.30861472     0.12200
H308        H  0.00521654  0.79150073  0.30686972     0.12400
H309        H  0.01517637  0.66877421  0.27896988     0.15200
H310        H  0.04203158  0.67049323  0.19708222     0.13900
H311        H  0.99557577  0.84837913  0.21855886     0.11600
H312        H  0.98293596  0.83466409  0.05162073     0.13600
C313        C  0.47898587  0.68034497  0.15522871     0.19700
C314        C  0.49399526  0.66028275  0.12543413    -0.18400
C315        C  0.48622959  0.62375667  0.12283507    -0.10700
C316        C  0.46301357  0.60682972  0.14982425     0.22000
C317        C  0.44914160  0.62672615  0.18013986    -0.20000
C318        C  0.45708528  0.66316850  0.18283211    -0.10800
C319        C  0.45330406  0.56839663  0.14762449    -0.15000
C320        C  0.45213523  0.55105764  0.11519425    -0.28900
C321        C  0.48572724  0.71917912  0.15831558    -0.03100
C322        C  0.48737962  0.74115946  0.12853342    -0.39700
H323        H  0.51199436  0.67270958  0.10441187     0.13100
H324        H  0.49875383  0.60884716  0.09996788     0.12700
H325        H  0.43164099  0.61414636  0.20151104     0.12200
H326        H  0.44542050  0.67820105  0.20607995     0.12400
H327        H  0.44536127  0.55439243  0.17332784     0.15200
H328        H  0.45719367  0.56561446  0.08937089     0.13900
H329        H  0.48607511  0.73045822  0.18590414     0.11600
H330        H  0.48361392  0.73042933  0.10098342     0.13600
C331        C  0.69714318  0.85204752  0.15276204     0.19700
C332        C  0.72462500  0.84192886  0.17648239    -0.18400
C333        C  0.75863749  0.85859601  0.17319383    -0.10700
C334        C  0.76499282  0.88633365  0.14680759     0.22000
C335        C  0.73719981  0.89687321  0.12381063    -0.20000
C336        C  0.70354538  0.87995050  0.12670800    -0.10800
C337        C  0.80061792  0.90400405  0.14152355    -0.15000
C338        C  0.82274046  0.90880253  0.16952525    -0.28900
C339        C  0.66031952  0.83704491  0.15822127    -0.03100
C340        C  0.63931400  0.83245607  0.12902726    -0.39700
H341        H  0.71979343  0.82107462  0.19731884     0.13100
H342        H  0.77989446  0.84952447  0.19095962     0.12700
H343        H  0.74139287  0.91872322  0.10400587     0.12200
H344        H  0.68214605  0.88946959  0.10932812     0.12400
H345        H  0.80845218  0.91401628  0.11388255     0.15200
H346        H  0.81426304  0.90065827  0.19766257     0.13900
H347        H  0.64862362  0.83694084  0.18646155     0.11600
H348        H  0.65239251  0.83134169  0.10130004     0.13600
C349        C  0.49204315  0.60984461  0.25896458     0.19700
C350        C  0.46681990  0.63236682  0.27772540    -0.18400
C351        C  0.47327936  0.66914817  0.27995858    -0.10700
C352        C  0.51018067  0.68362079  0.01418329     0.22000
C353        C  0.53607873  0.66073085  0.99696341    -0.20000
C354        C  0.52897527  0.62396859  0.99396712    -0.10800
C355        C  0.51745150  0.72262104  0.01617623    -0.15000
C356        C  0.49152165  0.74691567  0.00916739    -0.28900
C357        C  0.48424872  0.57095196  0.25792869    -0.03100
C358        C  0.49954757  0.54872512  0.98034648    -0.39700
H359        H  0.44192798  0.62146815  0.29053031     0.13100
H360        H  0.45337647  0.68594293  0.29459738     0.12700
H361        H  0.56153531  0.67142768  0.98530290     0.12200
H362        H  0.54940343  0.60689165  0.98056830     0.12400
H363        H  0.54499136  0.73157664  0.02070909     0.15200
H364        H  0.46035471  0.73859642  0.25146830     0.13900
H365        H  0.46556801  0.56016916  0.27937963     0.11600
H366        H  0.51483485  0.55928452  0.95612489     0.13600
C367        C  0.70345448  0.93130850  0.27259844     0.19700
C368        C  0.72539391  0.92454088  0.30297025    -0.18400
C369        C  0.76308838  0.93046137  0.30036842    -0.10700
C370        C  0.78026980  0.94350859  0.26706054     0.22000
C371        C  0.75821516  0.95089159  0.23685463    -0.20000
C372        C  0.72043517  0.94485349  0.23943410    -0.10800
C373        C  0.82077660  0.94922353  0.26217649    -0.15000
C374        C  0.84945062  0.92660570  0.03340071    -0.28900
C375        C  0.66373652  0.92189148  0.27669867    -0.03100
C376        C  0.64281086  0.92123021  0.99944528    -0.39700
H377        H  0.71337492  0.91400822  0.32889869     0.13100
H378        H  0.77825439  0.92427378  0.32463204     0.12700
H379        H  0.77035301  0.96099358  0.21081428     0.12200
H380        H  0.70507873  0.95039517  0.21510630     0.12400
H381        H  0.83400206  0.95975386  0.98929284     0.15200
H382        H  0.83537666  0.93431816  0.31634165     0.13900
H383        H  0.65487169  0.90873706  0.30262163     0.11600
H384        H  0.65021012  0.93830373  0.97568067     0.13600
C385        C  0.36365140  0.21082988  0.11942210     0.19700
C386        C  0.39064549  0.22564438  0.09522605    -0.18400
C387        C  0.40151142  0.26113784  0.09880577    -0.10700
C388        C  0.38497552  0.28306049  0.12632566     0.22000
C389        C  0.35788000  0.26836439  0.15065897    -0.20000
C390        C  0.34711120  0.23256903  0.14719301    -0.10800
C391        C  0.39621544  0.32093834  0.13065765    -0.15000
C392        C  0.41017772  0.34058888  0.10192708    -0.28900
C393        C  0.35542975  0.17217906  0.11543393    -0.03100
C394        C  0.34311135  0.15097146  0.14370725    -0.39700
H395        H  0.40408677  0.20930146  0.07400995     0.13100
H396        H  0.42349745  0.27094996  0.08052512     0.12700
H397        H  0.34491587  0.28467232  0.17224660     0.12200
H398        H  0.32586011  0.22221116  0.16609690     0.12400
H399        H  0.39111772  0.33351231  0.15753650     0.15200
H400        H  0.41205372  0.32941353  0.07422058     0.13900
H401        H  0.36531441  0.15967367  0.08975335     0.11600
H402        H  0.33572525  0.16260567  0.17054623     0.13600
C403        C  0.17649743  0.96602066  0.13923783     0.19700
C404        C  0.15124604  0.98145110  0.11560563    -0.18400
C405        C  0.11369753  0.97747809  0.12272871    -0.10700
C406        C  0.09998695  0.95721909  0.15352969     0.22000
C407        C  0.12516702  0.94174805  0.17731899    -0.20000
C408        C  0.16288443  0.94596813  0.17034741    -0.10800
C409        C  0.05992114  0.95240806  0.16219333    -0.15000
C410        C  0.03414069  0.95900561  0.13739437    -0.28900
C411        C  0.21624323  0.97327717  0.13087726    -0.03100
C412        C  0.24335040  0.96442704  0.15340650    -0.39700
H413        H  0.16062744  0.99740190  0.09177179     0.13100
H414        H  0.09574989  0.99140887  0.10456276     0.12700
H415        H  0.11561297  0.92635052  0.20153174     0.12200
H416        H  0.18089572  0.93347437  0.18956804     0.12400
H417        H  0.05152556  0.94157690  0.18938776     0.15200
H418        H  0.04226139  0.96763597  0.10952367     0.13900
H419        H  0.22323204  0.98938770  0.10624091     0.11600
H420        H  0.23713667  0.95013413  0.17927313     0.13600
C421        C  0.44080028  0.27973806  0.22051581     0.19700
C422        C  0.44674466  0.25738691  0.18970256    -0.18400
C423        C  0.44373299  0.22015219  0.19351249    -0.10700
C424        C  0.43575992  0.20417644  0.22846787     0.22000
C425        C  0.43082905  0.22639458  0.25968401    -0.20000
C426        C  0.43344804  0.26372048  0.25578449    -0.10800
C427        C  0.42940643  0.16480159  0.23030581    -0.15000
C428        C  0.43478071  0.14276291  0.00925563    -0.28900
C429        C  0.44415924  0.31930637  0.21486933    -0.03100
C430        C  0.44764375  0.33917641  0.98628836    -0.39700
H431        H  0.45035217  0.26620021  0.90598217     0.13100
H432        H  0.44171541  0.20152078  0.91392767     0.12700
H433        H  0.42394573  0.21530572  0.28700244     0.12200
H434        H  0.43000817  0.27961411  0.28063669     0.12400
H435        H  0.42240997  0.15253552  0.20439489     0.15200
H436        H  0.43689888  0.15646625  0.28768946     0.13900
H437        H  0.45844334  0.32892595  0.18957089     0.11600
H438        H  0.41750327  0.33491378  0.26535368     0.13600
C439        C  0.10839781  0.02309517  0.24250993     0.19700
C440        C  0.12850593  0.03071248  0.95855658    -0.18400
C441        C  0.16328574  0.04287072  0.20848813    -0.10700
C442        C  0.18054397  0.04854607  0.24202419     0.22000
C443        C  0.16007772  0.04441283  0.27582273    -0.20000
C444        C  0.12438972  0.03172143  0.27600303    -0.10800
C445        C  0.22067374  0.05350688  0.24031953    -0.15000
C446        C  0.24151076  0.05682286  0.02129505    -0.28900
C447        C  0.07210111  0.00610106  0.24211407    -0.03100
C448        C  0.05996181  0.98587275  0.01978398    -0.39700
H449        H  0.11673964  0.02456631  0.93234907     0.13100
H450        H  0.17985366  0.04503073  0.93227925     0.12700
H451        H  0.17161125  0.04937415  0.30232833     0.12200
H452        H  0.10950684  0.02833079  0.30241546     0.12400
H453        H  0.23422555  0.04839707  0.21348848     0.15200
H454        H  0.22869181  0.06040757  0.04870931     0.13900
H455        H  0.05662897  0.01090934  0.96724910     0.11600
H456        H  0.07642622  0.97732558  0.29268104     0.13600
C457        C  0.87362849  0.18140394  0.14001936     0.19700
C458        C  0.88104707  0.16195384  0.17250511    -0.18400
C459        C  0.88568021  0.12461348  0.17191895    -0.10700
C460        C  0.88339796  0.10547802  0.13849484     0.22000
C461        C  0.87478089  0.12479622  0.10621551    -0.20000
C462        C  0.87014868  0.16219317  0.10680158    -0.10800
C463        C  0.89043323  0.06585400  0.13561817    -0.15000
C464        C  0.90297407  0.04497359  0.16323223    -0.28900
C465        C  0.87232019  0.22156215  0.14189548    -0.03100
C466        C  0.86127451  0.24355820  0.11447769    -0.39700
H467        H  0.88373259  0.17581561  0.19856959     0.13100
H468        H  0.89131059  0.11128707  0.19783169     0.12700
H469        H  0.87254451  0.11100643  0.08004868     0.12200
H470        H  0.86503102  0.17573543  0.08083972     0.12400
H471        H  0.88577021  0.05336510  0.10910207     0.15200
H472        H  0.90760938  0.05615356  0.19024905     0.13900
H473        H  0.88276914  0.23366875  0.16659986     0.11600
H474        H  0.85117779  0.23235758  0.08924481     0.13600
C475        C  0.60667835  0.43354865  0.11522448     0.19700
C476        C  0.62956160  0.43461163  0.14551084    -0.18400
C477        C  0.66734696  0.42953431  0.14049005    -0.10700
C478        C  0.68354442  0.42417265  0.10465725     0.22000
C479        C  0.66079898  0.42396659  0.07429712    -0.20000
C480        C  0.62301401  0.42876038  0.07936522    -0.10800
C481        C  0.72341931  0.41665691  0.09789010    -0.15000
C482        C  0.74922941  0.42442766  0.12213218    -0.28900
C483        C  0.56630274  0.43842797  0.12202624    -0.03100
C484        C  0.54134381  0.42859338  0.09767758    -0.39700
H485        H  0.61815447  0.43897088  0.17336027     0.13100
H486        H  0.68343023  0.42906965  0.16493895     0.12700
H487        H  0.67236397  0.42012370  0.04636918     0.12200
H488        H  0.60699660  0.42922395  0.05491212     0.12400
H489        H  0.73162128  0.40300848  0.07229844     0.15200
H490        H  0.74151158  0.43796242  0.14786440     0.13900
H491        H  0.55688930  0.45060811  0.14800376     0.11600
H492        H  0.55030828  0.41638712  0.07168802     0.13600
C493        C  0.95946837  0.12587028  0.25729232     0.19700
C494        C  0.96068447  0.14639836  0.22433784    -0.18400
C495        C  0.96028469  0.18387298  0.22558608    -0.10700
C496        C  0.95209917  0.19514966  0.01159513     0.22000
C497        C  0.94893088  0.17398352  0.04404305    -0.20000
C498        C  0.94899698  0.13662974  0.04204964    -0.10800
C499        C  0.94662076  0.23444701  0.01512777    -0.15000
C500        C  0.95585093  0.26441119  0.23523222    -0.28900
C501        C  0.95645888  0.08624718  0.25472246    -0.03100
C502        C  0.94562867  0.06501011  0.28358900    -0.39700
H503        H  0.96042794  0.13340940  0.19753641     0.13100
H504        H  0.95874676  0.19853340  0.19960714     0.12700
H505        H  0.94578333  0.18642832  0.07110905     0.12200
H506        H  0.94722285  0.12151174  0.06786803     0.12400
H507        H  0.93257552  0.24339428  0.04060800     0.15200
H508        H  0.96821204  0.25628591  0.20867103     0.13900
H509        H  0.96310429  0.07411268  0.22789075     0.11600
H510        H  0.92522205  0.06849079  0.05660123     0.13600
C511        C  0.69310145  0.34117996  0.97649800     0.19700
C512        C  0.67271534  0.35106296  0.94597309    -0.18400
C513        C  0.63707614  0.36345655  0.95126085    -0.10700
C514        C  0.62112306  0.36652318  0.98734588     0.22000
C515        C  0.64006706  0.35344418  0.01758584    -0.20000
C516        C  0.67593182  0.34125999  0.01241342    -0.10800
C517        C  0.58527798  0.38404472  0.99417785    -0.15000
C518        C  0.56331045  0.40482008  0.22002106    -0.28900
C519        C  0.73300150  0.33659129  0.96982059    -0.03100
C520        C  0.75267002  0.33256450  0.24565200    -0.39700
H521        H  0.66746559  0.32077192  0.18529710     0.13100
H522        H  0.60662940  0.34653888  0.19714646     0.12700
H523        H  0.62785919  0.35459627  0.04554755     0.12200
H524        H  0.69024338  0.33391223  0.03693254     0.12400
H525        H  0.56873994  0.37594844  0.01864433     0.15200
H526        H  0.56958201  0.39479654  0.19223522     0.13900
H527        H  0.74052739  0.34254422  0.18952553     0.11600
H528        H  0.74605892  0.31933867  0.02370711     0.13600
C529        C  0.87759160  0.37183643  0.44899640     0.31000
C530        C  0.87717184  0.37156267  0.27767988     0.31000
C531        C  0.90030930  0.40160755  0.46698522    -0.05200
C532        C  0.84062815  0.37094116  0.47076503    -0.06000
C533        C  0.89659740  0.33928511  0.46794101    -0.05800
C534        C  0.90011136  0.40115914  0.25675630    -0.05200
C535        C  0.84045890  0.37057586  0.25921179    -0.06000
C536        C  0.89628807  0.33876941  0.25788785    -0.05800
C537        C  0.93549546  0.41151784  0.26528162    -0.31200
N538        N  0.95556525  0.42112573  0.48368510     0.15300
C539        C  0.93567773  0.41182862  0.45500002    -0.31200
H540        H  0.94794255  0.40911310  0.42735466     0.17200
C541        C  0.81024003  0.35060688  0.27103467    -0.30200
N542        N  0.79060495  0.34175881  0.24202130     0.14000
C543        C  0.81031465  0.35075256  0.46250387    -0.30200
C544        C  0.92293766  0.31469090  0.26771253    -0.30500
N545        N  0.93676169  0.29814799  0.23678604     0.14500
H546        H  0.93260140  0.31012132  0.29529547     0.17100
C547        C  0.92466509  0.31668262  0.45635246    -0.30500
H548        H  0.93433043  0.31188708  0.42799815     0.17100
H549        H  0.80417351  0.34041769  0.43553716     0.17100
H550        H  0.94764723  0.40925596  0.29194741     0.17200
H551        H  0.80375377  0.34099090  0.29898901     0.17100
C552        C  0.87196793  0.37468984  0.32404678     0.31000
C553        C  0.87298495  0.37462390  0.40301855     0.31000
C554        C  0.89571913  0.40349387  0.34211832    -0.05200
C555        C  0.83492910  0.38430884  0.34581834    -0.06000
C556        C  0.88102272  0.33917180  0.34375739    -0.05800
C557        C  0.89627048  0.40348954  0.38158752    -0.05200
C558        C  0.83580307  0.38457972  0.38554535    -0.06000
C559        C  0.88179191  0.33896647  0.38288800    -0.05800
C560        C  0.89982016  0.43967166  0.39084161    -0.31200
N561        N  0.90626056  0.46035501  0.36048270     0.15300
C562        C  0.89901807  0.43961846  0.33147978    -0.31200
H563        H  0.89390538  0.45116077  0.30458508     0.17200
C564        C  0.80398221  0.40137187  0.39826275    -0.30200
N565        N  0.78248637  0.40779907  0.36939550     0.14000
C566        C  0.80156927  0.39958707  0.33735949    -0.30200
C567        C  0.87332779  0.30387324  0.39408749    -0.30500
N568        N  0.86993373  0.28295348  0.36405183     0.14500
H569        H  0.86646725  0.29477752  0.42213859     0.17100
C570        C  0.87123903  0.30466177  0.33399222    -0.30500
H571        H  0.86307695  0.29613000  0.30697543     0.17100
H572        H  0.79224881  0.40609717  0.31002419     0.17100
H573        H  0.89522151  0.45135221  0.41795373     0.17200
H574        H  0.79681809  0.40918220  0.42650909     0.17100
C575        C  0.36790225  0.02656330  0.30594689     0.31000
C576        C  0.36925649  0.02612140  0.47684301     0.31000
C577        C  0.39406156  0.99935384  0.28555801    -0.05200
C578        C  0.33117689  0.02350268  0.28746277    -0.06000
C579        C  0.38335583  0.06121519  0.28535076    -0.05800
C580        C  0.39547093  0.99967044  0.49561890    -0.05200
C581        C  0.33281210  0.02352424  0.49908304    -0.06000
C582        C  0.38469890  0.06099815  0.49402118    -0.05800
C583        C  0.43154768  0.99303694  0.48340610    -0.31200
N584        N  0.45112247  0.98521090  0.26315604     0.15300
C585        C  0.43047704  0.99250448  0.29391083    -0.31200
H586        H  0.44261211  0.99601055  0.32037833     0.17200
C587        C  0.30058496  0.04012633  0.48992143    -0.30200
N588        N  0.27903294  0.04799272  0.26886414     0.14000
C589        C  0.29860000  0.04023661  0.29859198    -0.30200
C590        C  0.40659442  0.08844290  0.48025544    -0.30500
N591        N  0.41531011  0.10840358  0.26286043     0.14500
H592        H  0.41504715  0.09278957  0.45143835     0.17100
C593        C  0.40412297  0.09064938  0.29444987    -0.30500
H594        H  0.41125414  0.09866895  0.32196847     0.17100
H595        H  0.29063803  0.04883118  0.32639926     0.17100
H596        H  0.44313590  0.99673085  0.45555512     0.17200
H597        H  0.29386621  0.04873829  0.46235730     0.17100
C598        C  0.36430240  0.02194680  0.43112477     0.31000
C599        C  0.36316901  0.02245323  0.35227378     0.31000
C600        C  0.39140599  0.99673764  0.41008056    -0.05200
C601        C  0.32888920  0.00720632  0.41384619    -0.06000
C602        C  0.36714394  0.05828467  0.41087689    -0.05800
C603        C  0.39067930  0.99677613  0.37056855    -0.05200
C604        C  0.32785158  0.00774021  0.37409197    -0.06000
C605        C  0.36699224  0.05867840  0.37169679    -0.05800
C606        C  0.39759153  0.96109299  0.36063491    -0.31200
N607        N  0.40669270  0.94115779  0.39004019     0.15300
C608        C  0.39894319  0.96119610  0.42005045    -0.31200
H609        H  0.39584758  0.94921031  0.44742925     0.17200
C610        C  0.29624459  0.98943653  0.36588564    -0.30200
N611        N  0.27832113  0.97912409  0.39815705     0.14000
C612        C  0.29901747  0.98764859  0.42692517    -0.30200
C613        C  0.35135455  0.09132555  0.36206477    -0.30500
N614        N  0.34447251  0.11104006  0.39274945     0.14500
H615        H  0.34253705  0.09909692  0.33486223     0.17100
C616        C  0.35106951  0.09028870  0.42228698    -0.30500
H617        H  0.34267547  0.09755568  0.45040627     0.17100
H618        H  0.29246949  0.97984567  0.45547347     0.17100
H619        H  0.39339993  0.94901200  0.33405017     0.17200
H620        H  0.28735065  0.98270848  0.33860089     0.17100
C621        C  0.51785936  0.87321804  0.29917362     0.31000
C622        C  0.51549072  0.87298071  0.47024062     0.31000
C623        C  0.49619415  0.90465605  0.28057317    -0.01200
C624        C  0.55474857  0.87912923  0.27725739    -0.06000
C625        C  0.50568854  0.83938129  0.27993699    -0.05800
C626        C  0.49599454  0.90470974  0.49051399    -0.05200
C627        C  0.55434422  0.87932106  0.48673351    -0.06000
C628        C  0.49856570  0.84154412  0.49372620    -0.05800
C629        C  0.48896499  0.93988070  0.47985647    -0.31200
N630        N  0.48020653  0.96009156  0.26147765     0.15300
C631        C  0.48967668  0.94004126  0.29106656    -0.31200
H632        H  0.49156427  0.95105058  0.31853765     0.17200
C633        C  0.58390398  0.90031564  0.47376825    -0.30200
N634        N  0.60320636  0.90980201  0.25394915     0.14000
C635        C  0.58481991  0.89962425  0.28562257    -0.30200
C636        C  0.48362725  0.80864540  0.48690184    -0.30500
N637        N  0.49473889  0.78492990  0.25956174     0.14500
H638        H  0.46410410  0.80263090  0.46635760     0.17100
C639        C  0.51313362  0.80323308  0.28473257    -0.30500
H640        H  0.52856869  0.79101501  0.30647823     0.17100
H641        H  0.59144282  0.90897933  0.31282718     0.17100
H642        H  0.48918652  0.95060078  0.45187749     0.17200
H643        H  0.58905763  0.91024912  0.44570180     0.17100
C644        C  0.51422848  0.86739216  0.42411230     0.31000
C645        C  0.51337597  0.86854610  0.34539151     0.31000
C646        C  0.48951599  0.89557224  0.40558918    -0.05200
C647        C  0.55114914  0.86941603  0.40267647    -0.06000
C648        C  0.50021808  0.83249694  0.40515916    -0.05800
C649        C  0.48961898  0.89660798  0.36610634    -0.05200
C650        C  0.55087839  0.86943340  0.36330447    -0.06000
C651        C  0.49579562  0.83476961  0.36607421    -0.05800
C652        C  0.45422197  0.90634341  0.35760843    -0.31200
N653        N  0.43419384  0.91446861  0.38852861     0.15300
C654        C  0.45401661  0.90466218  0.41747110    -0.31200
H655        H  0.44230051  0.90232768  0.44546160     0.17200
C656        C  0.58193694  0.85028079  0.35165345    -0.30200
N657        N  0.60185269  0.84150387  0.38071854     0.14000
C658        C  0.58198855  0.85000487  0.41158360    -0.30200
C659        C  0.48017252  0.80270113  0.35668042    -0.30500
N660        N  0.48650106  0.77830496  0.38341829     0.14500
H661        H  0.46557638  0.79678588  0.33214492     0.17100
C662        C  0.50256108  0.79564089  0.41109837    -0.30500
H663        H  0.51660076  0.78206208  0.43296087     0.17100
H664        H  0.58745470  0.83904375  0.43866080     0.17100
H665        H  0.44246139  0.90503145  0.33068919     0.17200
H666        H  0.58843251  0.84032120  0.32405460     0.17100
C667        C  0.02409521  0.53018867  0.43935569     0.31000
C668        C  0.02464127  0.52955021  0.26847717     0.31000
C669        C  0.00229789  0.50095702  0.46092873    -0.05200
C670        C  0.06230979  0.52498205  0.45663915    -0.06000
C671        C  0.01421551  0.56595635  0.45915530    -0.05800
C672        C  0.00309022  0.49981769  0.24998843    -0.05200
C673        C  0.06276404  0.52468694  0.24744059    -0.06000
C674        C  0.01366535  0.56515484  0.24854268    -0.05800
C675        C  0.99397557  0.46522101  0.26174921    -0.31200
N676        N  0.98436469  0.44546863  0.23256618     0.15300
C677        C  0.99314452  0.46627751  0.45111099    -0.31200
H678        H  0.99360291  0.45536347  0.42343925     0.17200
C679        C  0.09842459  0.53240840  0.25612785    -0.30200
N680        N  0.11959638  0.53517198  0.22428523     0.14000
C681        C  0.09767173  0.53172636  0.44352231    -0.30200
C682        C  0.02546619  0.59981028  0.25718330    -0.30500
N683        N  0.02879521  0.62064456  0.22664675     0.14500
H684        H  0.03597872  0.60826831  0.28320858     0.17100
C685        C  0.02639303  0.60017034  0.44789083    -0.30500
H686        H  0.03646689  0.60829119  0.42044580     0.17100
H687        H  0.10658942  0.53700991  0.41492313     0.17100
H688        H  0.99471982  0.45446061  0.28966554     0.17200
H689        H  0.10799935  0.53774098  0.28351477     0.17100
C690        C  0.01918706  0.52838709  0.31475484     0.31000
C691        C  0.01841933  0.52889680  0.39359959     0.31000
C692        C  0.98734024  0.50726132  0.33595666    -0.05200
C693        C  0.05245310  0.51256152  0.33379533    -0.06000
C694        C  0.01144552  0.56486163  0.33396378    -0.05800
C695        C  0.98704901  0.50759457  0.37572603    -0.05200
C696        C  0.05141782  0.51254389  0.37278901    -0.06000
C697        C  0.01135399  0.56510889  0.37373761    -0.05800
C698        C  0.95213870  0.49786988  0.38796208    -0.31200
N699        N  0.93259995  0.48816253  0.35860893     0.15300
C700        C  0.95243441  0.49715948  0.32712862    -0.31200
H701        H  0.94198563  0.49589339  0.29958214     0.17200
C702        C  0.07250240  0.48390895  0.38348124    -0.30200
N703        N  0.09019413  0.46966711  0.35360124     0.14000
C704        C  0.07585832  0.48460627  0.32321838    -0.30200
C705        C  0.98335625  0.58871804  0.38458195    -0.30500
N706        N  0.96934870  0.60476411  0.35508873     0.14500
H707        H  0.96999324  0.59031979  0.41186029     0.17100
C708        C  0.98314261  0.58820625  0.32496557    -0.30500
H709        H  0.96983471  0.59002996  0.29886081     0.17100
H710        H  0.08120971  0.47454296  0.29544705     0.17100
H711        H  0.94154789  0.49720602  0.41646587     0.17200
H712        H  0.07332508  0.47269990  0.41122214     0.17100
O713        O  0.00576943  0.97270959  0.49075544    -0.73400
O714        O  0.90295859  0.95283982  0.49877127    -0.73400
O715        O  0.94579036  0.01286795  0.49638153    -0.73500
O716        O  0.96541418  0.91105010  0.49322560    -0.73500
O717        O  0.96344144  0.90595921  0.30539802    -0.73500
O718        O  0.94819746  0.00726542  0.31079294    -0.73500
O719        O  0.90378744  0.94897436  0.31241866    -0.73400
O720        O  0.00678286  0.96460150  0.30321392    -0.73500
Ni721      Ni  0.95467710  0.96217488  0.49252271     1.25400
Ni722      Ni  0.95547209  0.95647831  0.30987398     1.25400
C723        C  0.02188468  0.97120810  0.27131180     0.88800
C724        C  0.88493621  0.94836412  0.28359514     0.88700
C725        C  0.94436224  0.02851445  0.52787975     0.88700
C726        C  0.96978465  0.89378741  0.52367006     0.88900
O727        O  0.93611709  0.88853569  0.43322869    -0.73400
O728        O  0.91692949  0.98930442  0.43591436    -0.73400
O729        O  0.87572505  0.92841189  0.43999551    -0.73500
O730        O  0.97863226  0.94815185  0.42886001    -0.73500
O731        O  0.97302544  0.95093091  0.36802683    -0.73500
O732        O  0.87148798  0.92820025  0.37861322    -0.73500
O733        O  0.91044822  0.99069594  0.37498369    -0.73400
O734        O  0.93227033  0.88953143  0.37174896    -0.73500
Ni735      Ni  0.92704091  0.93877796  0.43666922     1.25400
Ni736      Ni  0.92187819  0.94007646  0.37124174     1.25400
C737        C  0.93610996  0.87229487  0.40226392     0.88800
C738        C  0.91016210  0.00669569  0.40629178     0.88700
C739        C  0.85738573  0.92310498  0.41128215     0.88700
C740        C  0.99288587  0.95252617  0.39610520     0.88900
O741        O  0.41600678  0.46283452  0.27008985    -0.73400
O742        O  0.51502118  0.42950298  0.25912614    -0.73400
O743        O  0.48164772  0.49481032  0.26315233    -0.73500
O744        O  0.44959723  0.39764535  0.26640193    -0.73500
O745        O  0.44904930  0.39775139  0.45167425    -0.73500
O746        O  0.47964715  0.49632948  0.45419204    -0.73500
O747        O  0.51357394  0.43215267  0.44880450    -0.73400
O748        O  0.41315100  0.46274900  0.45779200    -0.73500
Ni749      Ni  0.46563327  0.44625713  0.26673558     1.25400
Ni750      Ni  0.46365672  0.44744842  0.45086988     1.25400
C751        C  0.39804439  0.46630542  0.49026546     0.88800
C752        C  0.53043650  0.42359571  0.47778012     0.88700
C753        C  0.48552701  0.51097635  0.23173921     0.88700
C754        C  0.44155737  0.38164249  0.23683004     0.88900
O755        O  0.44048933  0.49446643  0.33347425    -0.73400
O756        O  0.41581800  0.39481166  0.32860581    -0.73400
O757        O  0.37780454  0.45599166  0.33519944    -0.73500
O758        O  0.47929640  0.43245216  0.32658111    -0.73500
O759        O  0.48137145  0.43071958  0.38785770    -0.73500
O760        O  0.37783425  0.44754942  0.39644070    -0.73500
O761        O  0.41947075  0.38912501  0.38970065    -0.73400
O762        O  0.43851187  0.49015386  0.39507059    -0.73500
Ni763      Ni  0.42843337  0.44461206  0.32891216     1.25400
Ni764      Ni  0.42953180  0.43932740  0.39454038     1.25400
C765        C  0.44291710  0.50890520  0.36531103     0.88800
C766        C  0.41313997  0.37574254  0.35817938     0.88700
C767        C  0.36082922  0.45387989  0.36683784     0.88700
C768        C  0.49737472  0.42829900  0.35569746     0.88900
C769        C  0.18293200  0.44014195  0.38544752     0.19700
C770        C  0.20572802  0.43894165  0.35298298    -0.18400
C771        C  0.24353974  0.43814367  0.35547748    -0.10700
C772        C  0.25939401  0.43880592  0.39037613     0.22000
C773        C  0.23673480  0.43766607  0.42269388    -0.20000
C774        C  0.19890947  0.43878738  0.42027287    -0.10800
C775        C  0.29943369  0.44031422  0.39357424    -0.15000
C776        C  0.32102678  0.45729730  0.36797111    -0.28900
C777        C  0.14321122  0.44751183  0.38472165    -0.03100
C778        C  0.12369635  0.44940358  0.35374714    -0.39700
H779        H  0.19490974  0.43998153  0.32555717     0.13100
H780        H  0.26029599  0.43728110  0.32997574     0.12700
H781        H  0.24832212  0.43728466  0.44985048     0.12200
H782        H  0.18209398  0.43979497  0.44578995     0.12400
H783        H  0.31133743  0.42702854  0.41720080     0.15200
H784        H  0.30917374  0.47130798  0.34493954     0.13900
H785        H  0.13061160  0.45600681  0.41101442     0.11600
H786        H  0.13552417  0.44072043  0.32718348     0.13600
C787        C  0.92953956  0.77292092  0.37688357     0.19700
C788        C  0.93469478  0.75340287  0.34399755    -0.18400
C789        C  0.93842216  0.71612293  0.34529416    -0.10700
C790        C  0.93606183  0.69759998  0.37966878     0.22000
C791        C  0.92893000  0.71701585  0.41236773    -0.20000
C792        C  0.92538548  0.75425879  0.41105102    -0.10800
C793        C  0.94601506  0.65924248  0.38310296    -0.15000
C794        C  0.94669563  0.63621048  0.35454475    -0.28900
C795        C  0.92906878  0.81262098  0.37468884    -0.03100
C796        C  0.93906562  0.83308514  0.40293811    -0.39700
H797        H  0.93726721  0.76717655  0.31734599     0.13100
H798        H  0.94490942  0.70237031  0.31950285     0.12700
H799        H  0.92711427  0.70340329  0.43916789     0.12200
H800        H  0.91979321  0.76823374  0.43690365     0.12400
H801        H  0.95717837  0.65091315  0.40929194     0.15200
H802        H  0.93523900  0.64402394  0.32836205     0.13900
H803        H  0.92105565  0.82528946  0.34894231     0.11600
H804        H  0.94740985  0.82084542  0.42863688     0.13600
C805        C  0.29795869  0.49835439  0.47655124     0.19700
C806        C  0.27990195  0.51954827  0.45051781    -0.18400
C807        C  0.24257147  0.52750222  0.45554956    -0.10700
C808        C  0.22206510  0.51409383  0.48678694     0.22000
C809        C  0.24026300  0.49313650  0.51287454    -0.20000
C810        C  0.27743793  0.48510978  0.50777877    -0.10800
C811        C  0.18175059  0.51995094  0.49303836    -0.15000
C812        C  0.15950670  0.53340630  0.46735951    -0.28900
C813        C  0.33755526  0.48933874  0.46948513    -0.03100
C814        C  0.35929342  0.47745199  0.49629150    -0.39700
H815        H  0.29087654  0.52081984  0.17250745     0.13100
H816        H  0.22644154  0.53473299  0.18063456     0.12700
H817        H  0.22541661  0.48217202  0.53705543     0.12200
H818        H  0.28950816  0.46758215  0.52791366     0.12400
H819        H  0.16937076  0.51008302  0.51916443     0.15200
H820        H  0.17013578  0.54895681  0.19416791     0.13900
H821        H  0.34632533  0.48981294  0.19276571     0.11600
H822        H  0.34850311  0.47610924  0.52476193     0.13600
C823        C  0.00146507  0.79664138  0.49717424     0.19700
C824        C  0.00604913  0.77682689  0.46415471    -0.18400
C825        C  0.01382924  0.73987403  0.46514425    -0.10700
C826        C  0.01790935  0.72179890  0.49935636     0.22000
C827        C  0.01457460  0.74181792  0.53219124    -0.20000
C828        C  0.00683774  0.77864215  0.53121247    -0.10800
C829        C  0.02241385  0.68192960  0.50256522    -0.15000
C830        C  0.03387439  0.66027070  0.47448145    -0.28900
C831        C  0.99146031  0.83577624  0.49502099    -0.03100
C832        C  0.97852772  0.85482997  0.52455707    -0.39700
H833        H  0.00293156  0.78978389  0.43740230     0.13100
H834        H  0.01541134  0.72553849  0.43912831     0.12700
H835        H  0.01760081  0.72877917  0.55895530     0.12200
H836        H  0.00516741  0.79257908  0.55741578     0.12400
H837        H  0.01401007  0.66965229  0.52909787     0.15200
H838        H  0.04224393  0.67190628  0.44767805     0.13900
H839        H  0.99457371  0.84927039  0.46814139     0.11600
H840        H  0.96905390  0.83748365  0.29990768     0.13600
C841        C  0.47199220  0.67909728  0.40655751     0.19700
C842        C  0.48706667  0.65939104  0.37650689    -0.18400
C843        C  0.48072944  0.62253550  0.37411139    -0.10700
C844        C  0.45888141  0.60464049  0.40158997     0.22000
C845        C  0.44490705  0.62419100  0.43221477    -0.20000
C846        C  0.45141921  0.66104917  0.43467800    -0.10800
C847        C  0.45069197  0.56564927  0.39953543    -0.15000
C848        C  0.45115048  0.54759012  0.36728076    -0.28900
C849        C  0.47825335  0.71822196  0.40972897    -0.03100
C850        C  0.48088950  0.74030147  0.37991358    -0.39700
H851        H  0.50430846  0.67230405  0.35517253     0.13100
H852        H  0.49348662  0.60816543  0.35100968     0.12700
H853        H  0.42847783  0.61099383  0.45404936     0.12200
H854        H  0.43980222  0.67566419  0.45824184     0.12400
H855        H  0.44235556  0.55178576  0.42522622     0.15200
H856        H  0.45682475  0.56171280  0.34129509     0.13900
H857        H  0.47873893  0.72946006  0.43735793     0.11600
H858        H  0.47711127  0.72967452  0.35232618     0.13600
C859        C  0.70036048  0.83848688  0.40500547     0.19700
C860        C  0.71628263  0.85346191  0.43599490    -0.18400
C861        C  0.75151548  0.86728440  0.43304113    -0.10700
C862        C  0.77160823  0.86664649  0.39881013     0.22000
C863        C  0.75700146  0.84870252  0.36880002    -0.20000
C864        C  0.72173497  0.83466199  0.37178103    -0.10800
C865        C  0.80763005  0.88435589  0.39322037    -0.15000
C866        C  0.82021359  0.90913667  0.41632476    -0.28900
C867        C  0.66052934  0.83164378  0.40771724    -0.03100
C868        C  0.63954062  0.83072112  0.37793495    -0.39700
H869        H  0.70078325  0.85611340  0.46219328     0.13100
H870        H  0.76241097  0.87887943  0.45752976     0.12700
H871        H  0.77238144  0.84675879  0.34246726     0.12200
H872        H  0.71118692  0.82196787  0.34764748     0.12400
H873        H  0.82449457  0.87683519  0.36888304     0.15200
H874        H  0.80452248  0.91719141  0.44095853     0.13900
H875        H  0.64749167  0.83431284  0.43520388     0.11600
H876        H  0.65206437  0.82879680  0.35016320     0.13600
C877        C  0.49081230  0.60888105  0.51563653     0.19700
C878        C  0.46316741  0.63227592  0.52856287    -0.18400
C879        C  0.46964524  0.66913422  0.53077210    -0.10700
C880        C  0.50550705  0.68395505  0.26405864     0.22000
C881        C  0.53116039  0.66141759  0.24600715    -0.20000
C882        C  0.52435620  0.62465257  0.24308732    -0.10800
C883        C  0.51282289  0.72281642  0.26633712    -0.15000
C884        C  0.48699011  0.74727282  0.25974639    -0.28900
C885        C  0.48297366  0.56998417  0.51378892    -0.03100
C886        C  0.49632520  0.54898728  0.23066471    -0.39700
H887        H  0.43635183  0.62202829  0.53653706     0.13100
H888        H  0.44775429  0.68655664  0.54071725     0.12700
H889        H  0.55623989  0.67238928  0.23373038     0.12200
H890        H  0.54464961  0.60784695  0.22910744     0.12400
H891        H  0.54047770  0.73160197  0.27056555     0.15200
H892        H  0.46144437  0.73858807  0.50244793     0.13900
H893        H  0.46305990  0.55885492  0.53376550     0.11600
H894        H  0.51162568  0.55938069  0.20638081     0.13600
C895        C  0.70737753  0.92388540  0.51581199     0.19700
C896        C  0.73320075  0.90136103  0.53192153    -0.18400
C897        C  0.77038159  0.90992516  0.53016179    -0.10700
C898        C  0.78299052  0.94139513  0.51195499     0.22000
C899        C  0.75733846  0.96339401  0.49462792    -0.20000
C900        C  0.71994242  0.95494339  0.49671150    -0.10800
C901        C  0.82274259  0.95083963  0.50895423    -0.15000
C902        C  0.84488332  0.94298127  0.28882967    -0.28900
C903        C  0.66786475  0.91420674  0.52082832    -0.03100
C904        C  0.63905839  0.92587498  0.25008582    -0.39700
H905        H  0.72454977  0.87680131  0.54599815     0.13100
H906        H  0.78916949  0.89144374  0.54261567     0.12700
H907        H  0.76622330  0.98750885  0.47984167     0.12200
H908        H  0.70098477  0.97307900  0.48399950     0.12400
H909        H  0.83119104  0.95924808  0.23532422     0.15200
H910        H  0.83768985  0.92519224  0.55849786     0.13900
H911        H  0.66059911  0.89546681  0.54327354     0.11600
H912        H  0.64715642  0.93777215  0.22338034     0.13600
C913        C  0.35035097  0.21065753  0.37314595     0.19700
C914        C  0.35389593  0.23271469  0.34142763    -0.18400
C915        C  0.36351551  0.26869261  0.34442511    -0.10700
C916        C  0.37054507  0.28327765  0.37935642     0.22000
C917        C  0.36475120  0.26186101  0.41134556    -0.20000
C918        C  0.35521692  0.22576019  0.40835845    -0.10800
C919        C  0.38436784  0.32038375  0.38329599    -0.15000
C920        C  0.40185438  0.33820963  0.35518598    -0.28900
C921        C  0.34645561  0.17147867  0.36783073    -0.03100
C922        C  0.33566539  0.14852682  0.39514338    -0.39700
H923        H  0.35017168  0.22180292  0.31404193     0.13100
H924        H  0.36571711  0.28468004  0.31918018     0.12700
H925        H  0.36933306  0.27261111  0.43861978     0.12200
H926        H  0.35367733  0.20959379  0.43351330     0.12400
H927        H  0.38058809  0.33318890  0.41023188     0.15200
H928        H  0.40654575  0.32577409  0.32838458     0.13900
H929        H  0.35639718  0.16084226  0.34124502     0.11600
H930        H  0.32553098  0.15868659  0.42182519     0.13600
C931        C  0.17495176  0.96717681  0.39013159     0.19700
C932        C  0.14937796  0.98384002  0.36772756    -0.18400
C933        C  0.11185345  0.97940219  0.37491557    -0.10700
C934        C  0.09848814  0.95759381  0.40471215     0.22000
C935        C  0.12401019  0.94085897  0.42723973    -0.20000
C936        C  0.16167714  0.94541920  0.42008884    -0.10800
C937        C  0.05845372  0.95217517  0.41350081    -0.15000
C938        C  0.03242077  0.95975719  0.38924886    -0.28900
C939        C  0.21466406  0.97484878  0.38183295    -0.03100
C940        C  0.24213353  0.96419147  0.40315111    -0.39700
H941        H  0.15851698  0.00102920  0.34482064     0.13100
H942        H  0.09364347  0.99406938  0.35758553     0.12700
H943        H  0.11476232  0.92411124  0.45056480     0.12200
H944        H  0.17992967  0.93186549  0.43831970     0.12400
H945        H  0.05033358  0.93991004  0.44011363     0.15200
H946        H  0.04033548  0.96972112  0.36176765     0.13900
H947        H  0.22140188  0.99262564  0.35838282     0.11600
H948        H  0.23631282  0.94819532  0.42800733     0.13600
C949        C  0.44582588  0.27848561  0.46280094     0.19700
C950        C  0.45137946  0.25595902  0.43199750    -0.18400
C951        C  0.44831890  0.21862283  0.43612458    -0.10700
C952        C  0.44041569  0.20287691  0.47128373     0.22000
C953        C  0.43600807  0.22537237  0.50228100    -0.20000
C954        C  0.43900062  0.26256374  0.49815144    -0.10800
C955        C  0.43342010  0.16355019  0.47396835    -0.15000
C956        C  0.42951284  0.14453087  0.26169927    -0.28900
C957        C  0.44884844  0.31819270  0.45755715    -0.03100
C958        C  0.43174828  0.34347149  0.23987613    -0.39700
H959        H  0.45327558  0.26880886  0.16240791     0.13100
H960        H  0.44736693  0.20374589  0.16891404     0.12700
H961        H  0.42941420  0.21463108  0.52977337     0.12200
H962        H  0.43643271  0.27849074  0.52302357     0.12400
H963        H  0.42594819  0.15084426  0.44844542     0.15200
H964        H  0.44128765  0.15646379  0.53150055     0.13900
H965        H  0.46377183  0.32832858  0.43286645     0.11600
H966        H  0.42018903  0.33234047  0.50753016     0.13600
C967        C  0.11033344  0.02719235  0.49307825     0.19700
C968        C  0.12732262  0.03086309  0.20876608    -0.18400
C969        C  0.16605533  0.04652087  0.46032965    -0.10700
C970        C  0.18216651  0.05332281  0.49426113     0.22000
C971        C  0.16067781  0.04999649  0.52753367    -0.20000
C972        C  0.12513844  0.03695745  0.52689026    -0.10800
C973        C  0.22214266  0.05937153  0.49339289    -0.15000
C974        C  0.24107247  0.05774599  0.27025520    -0.28900
C975        C  0.07403644  0.01027081  0.49181182    -0.03100
C976        C  0.05971642  0.98373913  0.26936968    -0.39700
H977        H  0.11486608  0.02608860  0.18260426     0.13100
H978        H  0.17814626  0.04624036  0.18196750     0.12700
H979        H  0.17110880  0.05643432  0.55424123     0.12200
H980        H  0.10937086  0.03444428  0.55289469     0.12400
H981        H  0.23571297  0.05951928  0.46601979     0.15200
H982        H  0.22834157  0.06318497  0.29734581     0.13900
H983        H  0.05526367  0.01195548  0.21868929     0.11600
H984        H  0.07647696  0.98330568  0.54347765     0.13600
C985        C  0.87832368  0.18247761  0.38681646     0.19700
C986        C  0.88006371  0.16194074  0.41961726    -0.18400
C987        C  0.88371939  0.12454252  0.41838981    -0.10700
C988        C  0.88645973  0.10655075  0.38403937     0.22000
C989        C  0.88382992  0.12708953  0.35122896    -0.20000
C990        C  0.88010761  0.16453649  0.35247836    -0.10800
C991        C  0.89242921  0.06680718  0.38106253    -0.15000
C992        C  0.90256777  0.04567654  0.40950860    -0.28900
C993        C  0.87697858  0.22244923  0.38966000    -0.03100
C994        C  0.86541313  0.24452227  0.36263295    -0.39700
H995        H  0.87876923  0.17494439  0.44645838     0.13100
H996        H  0.88443770  0.11022574  0.44460481     0.12700
H997        H  0.88542947  0.11421776  0.32434280     0.12200
H998        H  0.87977990  0.17922873  0.32640597     0.12400
H999        H  0.88947278  0.05463656  0.35404132     0.15200
H1000       H  0.90626011  0.05700853  0.43666193     0.13900
H1001       H  0.88685052  0.23416137  0.41482676     0.11600
H1002       H  0.85542896  0.23328763  0.33733393     0.13600
C1003       C  0.60215216  0.42583990  0.36827457     0.19700
C1004       C  0.62734482  0.45056634  0.38131927    -0.18400
C1005       C  0.66504061  0.44418535  0.37740913    -0.10700
C1006       C  0.67855297  0.41245493  0.36084980     0.22000
C1007       C  0.65328144  0.38720462  0.34902146    -0.20000
C1008       C  0.61565300  0.39379581  0.35244849    -0.10800
C1009       C  0.71847092  0.40490811  0.35445626    -0.15000
C1010       C  0.74516243  0.42008822  0.37354572    -0.28900
C1011       C  0.56217407  0.43377557  0.37282587    -0.03100
C1012       C  0.53679909  0.41955096  0.35137245    -0.39700
H1013       H  0.61781969  0.47528477  0.39405662     0.13100
H1014       H  0.68338038  0.46451970  0.38670340     0.12700
H1015       H  0.66272724  0.36228170  0.33666603     0.12200
H1016       H  0.59730417  0.37346576  0.34313552     0.12400
H1017       H  0.72619872  0.38397512  0.33480452     0.15200
H1018       H  0.73808090  0.43829172  0.39609478     0.13900
H1019       H  0.55355050  0.45366626  0.39325494     0.11600
H1020       H  0.54516238  0.40260583  0.32820551     0.13600
C1021       C  0.95743777  0.12878974  0.50430229     0.19700
C1022       C  0.95867235  0.14984003  0.47169244    -0.18400
C1023       C  0.96042452  0.18726333  0.47350700    -0.10700
C1024       C  0.95937167  0.20155033  0.26004694     0.22000
C1025       C  0.96049089  0.18098924  0.29283602    -0.20000
C1026       C  0.96091264  0.14361340  0.29156307    -0.10800
C1027       C  0.95223204  0.24057739  0.26352527    -0.15000
C1028       C  0.95907103  0.26764497  0.48428257    -0.28900
C1029       C  0.95356069  0.08923340  0.50124110    -0.03100
C1030       C  0.94277368  0.06786133  0.53003671    -0.39700
H1031       H  0.95703017  0.13735089  0.44475059     0.13100
H1032       H  0.95891518  0.20240853  0.44782487     0.12700
H1033       H  0.95993208  0.19390672  0.31972119     0.12200
H1034       H  0.96192474  0.12903595  0.31762121     0.12400
H1035       H  0.93980219  0.24922209  0.28990174     0.15200
H1036       H  0.97038226  0.25955537  0.45726387     0.13900
H1037       H  0.96033993  0.07722971  0.47437477     0.11600
H1038       H  0.93896889  0.07611768  0.31071244     0.13600
C1039       C  0.69277624  0.35250836  0.22683565     0.19700
C1040       C  0.66353873  0.34127693  0.20623319    -0.18400
C1041       C  0.62896087  0.35645951  0.21269931    -0.10700
C1042       C  0.62359066  0.38403682  0.23898906     0.22000
C1043       C  0.65308481  0.39551347  0.25895898    -0.20000
C1044       C  0.68726543  0.37978585  0.25319279    -0.10800
C1045       C  0.58777654  0.40153899  0.24629792    -0.15000
C1046       C  0.56750442  0.40911994  0.47284584    -0.28900
C1047       C  0.73007088  0.33937273  0.21807145    -0.03100
C1048       C  0.75368636  0.33056025  0.49769756    -0.39700
H1049       H  0.68182793  0.35351121  0.42004759     0.13100
H1050       H  0.61908805  0.37297039  0.42926116     0.12700
H1051       H  0.64983285  0.41735645  0.27845525     0.12200
H1052       H  0.70981373  0.38996765  0.26830347     0.12400
H1053       H  0.58231869  0.41387725  0.27320258     0.15200
H1054       H  0.58283693  0.41715949  0.44775261     0.13900
H1055       H  0.74122255  0.34872621  0.44453078     0.11600
H1056       H  0.74081723  0.32901151  0.27373508     0.13600
C1057       C  0.87941208  0.37064792  0.69865235     0.31000
C1058       C  0.87774363  0.37212254  0.52778371     0.31000
C1059       C  0.90263804  0.39977901  0.71687895    -0.05200
C1060       C  0.84265801  0.37011577  0.72045425    -0.06000
C1061       C  0.89791899  0.33755164  0.71708547    -0.05800
C1062       C  0.90048479  0.40172936  0.50667476    -0.05200
C1063       C  0.84079239  0.37137541  0.50995225    -0.06000
C1064       C  0.89655929  0.33933938  0.50780868    -0.05800
C1065       C  0.93602813  0.41196898  0.51467887    -0.31200
N1066       N  0.95812383  0.41870694  0.73335524     0.15300
C1067       C  0.93803921  0.40962500  0.70477880    -0.31200
H1068       H  0.95015785  0.40691579  0.67707525     0.17200
C1069       C  0.81059469  0.35174171  0.52258123    -0.30200
N1070       N  0.79097360  0.34202611  0.49391719     0.14000
C1071       C  0.81203534  0.35086865  0.71157504    -0.30200
C1072       C  0.92434478  0.31646617  0.51739401    -0.30500
N1073       N  0.93903815  0.30086510  0.48631029     0.14500
H1074       H  0.93408766  0.31218271  0.54499996     0.17100
C1075       C  0.92551638  0.31468643  0.70497333    -0.30500
H1076       H  0.93476046  0.30995960  0.67647342     0.17100
H1077       H  0.80559917  0.34159551  0.68430133     0.17100
H1078       H  0.94868570  0.40933201  0.54105006     0.17200
H1079       H  0.80431430  0.34265227  0.55075708     0.17100
C1080       C  0.87297720  0.37478319  0.57408157     0.31000
C1081       C  0.87443683  0.37402003  0.65284315     0.31000
C1082       C  0.89758528  0.40278203  0.59210962    -0.05200
C1083       C  0.83632961  0.38547963  0.59604386    -0.06000
C1084       C  0.88116624  0.33874340  0.59346141    -0.05800
C1085       C  0.89842892  0.40241273  0.63156924    -0.05200
C1086       C  0.83741464  0.38525274  0.63570200    -0.06000
C1087       C  0.88193445  0.33827295  0.63250876    -0.05800
C1088       C  0.90230936  0.43850317  0.64111793    -0.31200
N1089       N  0.90820153  0.45946881  0.61090216     0.15300
C1090       C  0.90080767  0.43899653  0.58181595    -0.31200
H1091       H  0.89507356  0.45085868  0.55523104     0.17200
C1092       C  0.80655208  0.40348377  0.64870560    -0.30200
N1093       N  0.78527723  0.41176534  0.62005360     0.14000
C1094       C  0.80390702  0.40291849  0.58783235    -0.30200
C1095       C  0.87271636  0.30333437  0.64361480    -0.30500
N1096       N  0.86921620  0.28245628  0.61354336     0.14500
H1097       H  0.86571384  0.29433571  0.67167015     0.17100
C1098       C  0.87123669  0.30425726  0.58344372    -0.30500
H1099       H  0.86363587  0.29582302  0.55619875     0.17100
H1100       H  0.79523230  0.41025347  0.56046083     0.17100
H1101       H  0.89790317  0.44998064  0.66835058     0.17200
H1102       H  0.80005023  0.41115787  0.67714370     0.17100
C1103       C  0.37058451  0.02817515  0.55557920     0.31000
C1104       C  0.37086560  0.02764261  0.72707405     0.31000
C1105       C  0.39625213  0.00059511  0.53517759    -0.05200
C1106       C  0.33336561  0.02454668  0.53822296    -0.06000
C1107       C  0.38527868  0.06246644  0.53370862    -0.05800
C1108       C  0.39641192  0.00082122  0.74598571    -0.05200
C1109       C  0.33385375  0.02432510  0.74796491    -0.06000
C1110       C  0.38539930  0.06207367  0.74586612    -0.05800
C1111       C  0.43275748  0.99492805  0.73459233    -0.31200
N1112       N  0.45274270  0.98568744  0.51186114     0.15300
C1113       C  0.43280961  0.99376948  0.54287520    -0.31200
H1114       H  0.44543160  0.99754264  0.56905428     0.17200
C1115       C  0.30237645  0.04159122  0.73793098    -0.30200
N1116       N  0.28052309  0.04843657  0.52082791     0.14000
C1117       C  0.30113666  0.04153168  0.54994868    -0.30200
C1118       C  0.40677383  0.09054390  0.73381477    -0.30500
N1119       N  0.41754874  0.10853877  0.50879413     0.14500
H1120       H  0.41574746  0.09611679  0.70538941     0.17100
C1121       C  0.40693170  0.09178754  0.54121564    -0.30500
H1122       H  0.41511605  0.10026954  0.56823932     0.17100
H1123       H  0.29408648  0.05085260  0.57772518     0.17100
H1124       H  0.44494240  0.99945733  0.70711177     0.17200
H1125       H  0.29690218  0.05146452  0.71041112     0.17100
C1126       C  0.36723636  0.02415718  0.68104891     0.31000
C1127       C  0.36665257  0.02464846  0.60204684     0.31000
C1128       C  0.39457132  0.99901816  0.66012376    -0.05200
C1129       C  0.33213957  0.00935671  0.66346520    -0.06000
C1130       C  0.37046514  0.06051916  0.66075658    -0.05800
C1131       C  0.39408558  0.99908374  0.62048562    -0.05200
C1132       C  0.33141416  0.00985538  0.62375052    -0.06000
C1133       C  0.37072769  0.06084018  0.62149872    -0.05800
C1134       C  0.40055750  0.96339468  0.61062300    -0.31200
N1135       N  0.40923048  0.94337120  0.64004332     0.15300
C1136       C  0.40174892  0.96343229  0.67005493    -0.31200
H1137       H  0.39829258  0.95131459  0.69732764     0.17200
C1138       C  0.30106598  0.98982163  0.61524090    -0.30200
N1139       N  0.28335851  0.97881045  0.64729644     0.14000
C1140       C  0.30327794  0.98825488  0.67626111    -0.30200
C1141       C  0.35635357  0.09388442  0.61150649    -0.30500
N1142       N  0.34976324  0.11390218  0.64204344     0.14500
H1143       H  0.34800488  0.10182381  0.58420151     0.17100
C1144       C  0.35510119  0.09295459  0.67181658    -0.30500
H1145       H  0.34638174  0.10047229  0.69976747     0.17100
H1146       H  0.29686603  0.98001711  0.70470347     0.17100
H1147       H  0.39601631  0.95124419  0.58415983     0.17200
H1148       H  0.29286935  0.98241401  0.58789330     0.17100
C1149       C  0.51952109  0.87409238  0.54889817     0.31000
C1150       C  0.51655154  0.87508110  0.72014299     0.31000
C1151       C  0.49740849  0.90499716  0.52999843    -0.01200
C1152       C  0.55619129  0.87983333  0.52640420    -0.06000
C1153       C  0.50759439  0.83964493  0.53046640    -0.05800
C1154       C  0.49862220  0.90756503  0.74077374    -0.05200
C1155       C  0.55546565  0.87944879  0.73691826    -0.06000
C1156       C  0.49700092  0.84480757  0.74330138    -0.05800
C1157       C  0.49069377  0.94262193  0.73078306    -0.31200
N1158       N  0.48157901  0.96026571  0.51012103     0.15300
C1159       C  0.49140685  0.94065725  0.53985228    -0.31200
H1160       H  0.49402994  0.95219548  0.56698996     0.17200
C1161       C  0.58498598  0.90058239  0.72429604    -0.30200
N1162       N  0.60519512  0.90888362  0.50200269     0.14000
C1163       C  0.58713394  0.89934386  0.53409391    -0.30200
C1164       C  0.48359644  0.81177130  0.73513562    -0.30500
N1165       N  0.49584662  0.78468566  0.51169621     0.14500
H1166       H  0.46328652  0.80602063  0.71526853     0.17100
C1167       C  0.51469007  0.80346472  0.53621990    -0.30500
H1168       H  0.52975942  0.79168001  0.55848354     0.17100
H1169       H  0.59490969  0.90831025  0.56108792     0.17100
H1170       H  0.49023837  0.95362865  0.70294920     0.17200
H1171       H  0.59004787  0.91092745  0.69637116     0.17100
C1172       C  0.51595784  0.86950297  0.67389551     0.31000
C1173       C  0.51503289  0.87042095  0.59515510     0.31000
C1174       C  0.49203986  0.89819722  0.65534620    -0.05200
C1175       C  0.55293620  0.87070870  0.65237530    -0.06000
C1176       C  0.50108284  0.83495395  0.65494016    -0.05800
C1177       C  0.49202049  0.89909606  0.61577856    -0.05200
C1178       C  0.55248514  0.87053737  0.61298725    -0.06000
C1179       C  0.49652896  0.83736714  0.61593968    -0.05800
C1180       C  0.45657383  0.90872500  0.60750784    -0.31200
N1181       N  0.43668455  0.91675334  0.63850087     0.15300
C1182       C  0.45667578  0.90730128  0.66735679    -0.31200
H1183       H  0.44502676  0.90483258  0.69536553     0.17200
C1184       C  0.58307467  0.85092158  0.60121308    -0.30200
N1185       N  0.60315511  0.84220410  0.63012260     0.14000
C1186       C  0.58370961  0.85109266  0.66113671    -0.30200
C1187       C  0.47963152  0.80604061  0.60654497    -0.30500
N1188       N  0.48553947  0.78142214  0.63310056     0.14500
H1189       H  0.46482250  0.80070563  0.58197946     0.17100
C1190       C  0.50262567  0.79803327  0.66053617    -0.30500
H1191       H  0.51653966  0.78383510  0.68208319     0.17100
H1192       H  0.58988210  0.84071236  0.68825611     0.17100
H1193       H  0.44452707  0.90702324  0.58076833     0.17200
H1194       H  0.58942206  0.84099841  0.57357769     0.17100
C1195       C  0.02543548  0.52893319  0.68935202     0.31000
C1196       C  0.02540937  0.52995206  0.51820856     0.31000
C1197       C  0.00399705  0.49924777  0.71076149    -0.05200
C1198       C  0.06379157  0.52382756  0.70630880    -0.06000
C1199       C  0.01534828  0.56435792  0.70965084    -0.05800
C1200       C  0.00295282  0.50080631  0.49977116    -0.05200
C1201       C  0.06314434  0.52455362  0.49641588    -0.06000
C1202       C  0.01481758  0.56600252  0.49875222    -0.05800
C1203       C  0.99417174  0.46598216  0.51112095    -0.31200
N1204       N  0.98424999  0.44653749  0.48181298     0.15300
C1205       C  0.99478123  0.46463780  0.70069283    -0.31200
H1206       H  0.99473131  0.45410821  0.67287394     0.17200
C1207       C  0.09938628  0.53037912  0.50446454    -0.30200
N1208       N  0.12017534  0.53225102  0.47225243     0.14000
C1209       C  0.09881251  0.53185709  0.69303840    -0.30200
C1210       C  0.02682152  0.60063242  0.50743262    -0.30500
N1211       N  0.02951778  0.62172255  0.47698632     0.14500
H1212       H  0.03743145  0.60904166  0.53344138     0.17100
C1213       C  0.02762531  0.59862421  0.69878395    -0.30500
H1214       H  0.03797217  0.60693414  0.67150227     0.17100
H1215       H  0.10731018  0.53763110  0.66441678     0.17100
H1216       H  0.99544111  0.45486736  0.53885275     0.17200
H1217       H  0.10970368  0.53498259  0.53167867     0.17100
C1218       C  0.02027398  0.52835061  0.56457431     0.31000
C1219       C  0.01979004  0.52834331  0.64352202     0.31000
C1220       C  0.98829254  0.50742008  0.58589585    -0.05200
C1221       C  0.05347229  0.51211759  0.58340514    -0.06000
C1222       C  0.01297811  0.56473232  0.58402876    -0.05800
C1223       C  0.98824113  0.50749672  0.62565321    -0.05200
C1224       C  0.05259280  0.51190924  0.62242489    -0.06000
C1225       C  0.01300368  0.56477521  0.62384806    -0.05800
C1226       C  0.95354267  0.49755776  0.63816380    -0.31200
N1227       N  0.93387010  0.48783884  0.60894522     0.15300
C1228       C  0.95336436  0.49716904  0.57733655    -0.31200
H1229       H  0.94267240  0.49592045  0.54989735     0.17200
C1230       C  0.07366974  0.48323616  0.63293801    -0.30200
N1231       N  0.09104716  0.46889288  0.60291469     0.14000
C1232       C  0.07659699  0.48401005  0.57265379    -0.30200
C1233       C  0.98520172  0.58857450  0.63477772    -0.30500
N1234       N  0.97125889  0.60478603  0.60534287     0.14500
H1235       H  0.97184260  0.59027238  0.66205490     0.17100
C1236       C  0.98481745  0.58825820  0.57516542    -0.30500
H1237       H  0.97134909  0.59020671  0.54916480     0.17100
H1238       H  0.08159920  0.47391300  0.54484576     0.17100
H1239       H  0.94324541  0.49657898  0.66675792     0.17200
H1240       H  0.07457757  0.47207745  0.66067275     0.17100
O1241       O  0.00699062  0.96957328  0.74161790    -0.73400
O1242       O  0.90387699  0.95165172  0.74964199    -0.73400
O1243       O  0.94784767  0.01079544  0.74683645    -0.73500
O1244       O  0.96577551  0.90878271  0.74447518    -0.73500
O1245       O  0.96652656  0.90992022  0.55469250    -0.73500
O1246       O  0.94609333  0.01053704  0.55814221    -0.73500
O1247       O  0.90460662  0.94991397  0.56008811    -0.73400
O1248       O  0.00691372  0.97070984  0.55235120    -0.73500
Ni1249     Ni  0.95582624  0.95998325  0.74334200     1.25400
Ni1250     Ni  0.95595854  0.96012588  0.55832411     1.25400
C1251       C  0.02278142  0.97637047  0.52063697     0.88800
C1252       C  0.88667485  0.94832373  0.53059109     0.88700
C1253       C  0.94682654  0.02666570  0.77815528     0.88700
C1254       C  0.96996892  0.89171234  0.77509589     0.88900
O1255       O  0.94682393  0.88855749  0.67967412    -0.73400
O1256       O  0.92177946  0.98815007  0.68629303    -0.73400
O1257       O  0.88452498  0.92455210  0.69019422    -0.73500
O1258       O  0.98530905  0.95003131  0.67647622    -0.73500
O1259       O  0.97826011  0.95159739  0.61577956    -0.73500
O1260       O  0.87653939  0.92952465  0.62955139    -0.73500
O1261       O  0.91584673  0.99140294  0.62533971    -0.73400
O1262       O  0.93729543  0.89055400  0.61914296    -0.73500
Ni1263     Ni  0.93478190  0.93802494  0.68535089     1.25400
Ni1264     Ni  0.92696480  0.94103513  0.62026323     1.25400
C1265       C  0.94487314  0.87300315  0.64849375     0.88800
C1266       C  0.91481372  0.00638601  0.65717143     0.88700
C1267       C  0.86438947  0.92170495  0.66250777     0.88700
C1268       C  0.99876797  0.95381829  0.64337881     0.88900
O1269       O  0.41609079  0.45948036  0.51889862    -0.73400
O1270       O  0.51528530  0.42708853  0.51015052    -0.73400
O1271       O  0.48154054  0.49259928  0.51580594    -0.73500
O1272       O  0.45024957  0.39495831  0.51303503    -0.73500
O1273       O  0.44598111  0.39855555  0.70657845    -0.73500
O1274       O  0.47945476  0.49609017  0.69774619    -0.73500
O1275       O  0.51085697  0.43007379  0.69657829    -0.73400
O1276       O  0.41249241  0.46479461  0.70845497    -0.73500
Ni1277     Ni  0.46580215  0.44353121  0.51641533     1.25400
Ni1278     Ni  0.46188534  0.44745160  0.70014856     1.25400
C1279       C  0.39934698  0.47080748  0.74129098     0.88800
C1280       C  0.53055452  0.42622192  0.72444731     0.88700
C1281       C  0.48550624  0.51065414  0.48546613     0.88700
C1282       C  0.44518508  0.37999856  0.48212307     0.88900
O1283       O  0.43546552  0.50074155  0.58302976    -0.73400
O1284       O  0.42236915  0.39917743  0.57733700    -0.73400
O1285       O  0.37784356  0.45587831  0.58463844    -0.73500
O1286       O  0.48105359  0.44362237  0.57528485    -0.73500
O1287       O  0.48397783  0.44216520  0.63625854    -0.73500
O1288       O  0.37860164  0.44692442  0.64577554    -0.73500
O1289       O  0.42730546  0.39341835  0.63824150    -0.73400
O1290       O  0.43370688  0.49583462  0.64460828    -0.73500
Ni1291     Ni  0.42924911  0.44999390  0.57812102     1.25400
Ni1292     Ni  0.43117538  0.44446594  0.64355278     1.25400
C1293       C  0.43609801  0.51509116  0.61507292     0.88800
C1294       C  0.42199795  0.37967913  0.60660669     0.88700
C1295       C  0.36108121  0.45219507  0.61620823     0.88700
C1296       C  0.49994997  0.44158784  0.60394574     0.88900
C1297       C  0.18297064  0.43772441  0.63563853     0.19700
C1298       C  0.20592823  0.43367772  0.60359618    -0.18400
C1299       C  0.24372309  0.43316622  0.60635595    -0.10700
C1300       C  0.25947798  0.43690220  0.64110603     0.22000
C1301       C  0.23662351  0.43850200  0.67325502    -0.20000
C1302       C  0.19879882  0.43921081  0.67053058    -0.10800
C1303       C  0.29957683  0.43911022  0.64430891    -0.15000
C1304       C  0.32108898  0.45339081  0.61688631    -0.28900
C1305       C  0.14314550  0.44455130  0.63420621    -0.03100
C1306       C  0.12452187  0.44851810  0.60278202    -0.39700
H1307       H  0.19525128  0.43173659  0.57620876     0.13100
H1308       H  0.26051891  0.42996146  0.58111650     0.12700
H1309       H  0.24804996  0.44068694  0.70039546     0.12200
H1310       H  0.18188188  0.44228286  0.69577534     0.12400
H1311       H  0.31148213  0.42917173  0.66957067     0.15200
H1312       H  0.30904583  0.46450597  0.59228309     0.13900
H1313       H  0.12973005  0.45125247  0.66066542     0.11600
H1314       H  0.13715912  0.44178052  0.57595954     0.13600
C1315       C  0.93539636  0.77394329  0.62498754     0.19700
C1316       C  0.93434492  0.75351402  0.59258968    -0.18400
C1317       C  0.93747188  0.71617011  0.59446296    -0.10700
C1318       C  0.94089301  0.69868549  0.62910051     0.22000
C1319       C  0.93978021  0.71912325  0.66159342    -0.20000
C1320       C  0.93673504  0.75628856  0.65967739    -0.10800
C1321       C  0.95069270  0.66031780  0.63253137    -0.15000
C1322       C  0.94901212  0.63646753  0.60493168    -0.28900
C1323       C  0.93495484  0.81353701  0.62207035    -0.03100
C1324       C  0.95000104  0.83413135  0.64758209    -0.39700
H1325       H  0.93264928  0.76657182  0.56565392     0.13100
H1326       H  0.93898329  0.70162240  0.56860261     0.12700
H1327       H  0.94233605  0.70635681  0.68858009     0.12200
H1328       H  0.93573819  0.77099777  0.68548051     0.12400
H1329       H  0.96391507  0.65245707  0.65779244     0.15200
H1330       H  0.93608157  0.64353846  0.57933950     0.13900
H1331       H  0.92175248  0.82595797  0.59871523     0.11600
H1332       H  0.96377101  0.82203451  0.67057887     0.13600
C1333       C  0.30012945  0.50627411  0.72814850     0.19700
C1334       C  0.28034469  0.51873947  0.69798901    -0.18400
C1335       C  0.24297984  0.52671115  0.70230564    -0.10700
C1336       C  0.22418842  0.52240904  0.73718363     0.22000
C1337       C  0.24434410  0.51143892  0.76759028    -0.20000
C1338       C  0.28158541  0.50352068  0.76323783    -0.10800
C1339       C  0.18361883  0.52644691  0.74307076    -0.15000
C1340       C  0.16060298  0.53645411  0.71654687    -0.28900
C1341       C  0.33915728  0.49478203  0.72128369    -0.03100
C1342       C  0.36144005  0.48415666  0.74823285    -0.39700
H1343       H  0.29473822  0.52992565  0.42602333     0.13100
H1344       H  0.23020380  0.54407893  0.43476430     0.12700
H1345       H  0.23098959  0.50807403  0.79487695     0.12200
H1346       H  0.29512569  0.49437668  0.78748718     0.12400
H1347       H  0.17194762  0.51848745  0.77017728     0.15200
H1348       H  0.17079994  0.54138523  0.44018412     0.13900
H1349       H  0.34925680  0.49335838  0.44153262     0.11600
H1350       H  0.35215034  0.48550121  0.77712233     0.13600
C1351       C  0.00220403  0.79443709  0.74990083     0.19700
C1352       C  0.01490737  0.77657291  0.71750401    -0.18400
C1353       C  0.02291837  0.73965188  0.71815228    -0.10700
C1354       C  0.01876504  0.71957562  0.75154623     0.22000
C1355       C  0.00724792  0.73766867  0.78402824    -0.20000
C1356       C  0.99918698  0.77436763  0.78338407    -0.10800
C1357       C  0.02340941  0.67965788  0.75399833    -0.15000
C1358       C  0.03565563  0.65829842  0.72601501    -0.28900
C1359       C  0.99248003  0.83364434  0.74753666    -0.03100
C1360       C  0.97828227  0.85276547  0.77643937    -0.39700
H1361       H  0.01814705  0.79110412  0.69133205     0.13100
H1362       H  0.03146852  0.72712071  0.69224313     0.12700
H1363       H  0.00404781  0.72317670  0.81024306     0.12200
H1364       H  0.99058952  0.78635171  0.80948685     0.12400
H1365       H  0.01367851  0.66680500  0.77981738     0.15200
H1366       H  0.04470106  0.66996780  0.69946879     0.13900
H1367       H  0.99758216  0.84743039  0.72106049     0.11600
H1368       H  0.97482702  0.84189729  0.55154728     0.13600
C1369       C  0.46498165  0.68384353  0.65722660     0.19700
C1370       C  0.48112616  0.66320692  0.62846363    -0.18400
C1371       C  0.47350994  0.62670217  0.62618444    -0.10700
C1372       C  0.44939478  0.61009620  0.65248656     0.22000
C1373       C  0.43445876  0.63037975  0.68208833    -0.20000
C1374       C  0.44222148  0.66699259  0.68445800    -0.10800
C1375       C  0.44079481  0.57138156  0.65031655    -0.15000
C1376       C  0.44058253  0.55419887  0.61765061    -0.28900
C1377       C  0.47241385  0.72269186  0.65994158    -0.03100
C1378       C  0.47867311  0.74373537  0.62980279    -0.39700
H1379       H  0.50016691  0.67507189  0.60807060     0.13100
H1380       H  0.48707683  0.61143621  0.60417074     0.12700
H1381       H  0.41655389  0.61793921  0.70319973     0.12200
H1382       H  0.43015076  0.68227056  0.70734686     0.12400
H1383       H  0.43418659  0.55684930  0.67607239     0.15200
H1384       H  0.44423825  0.56935285  0.59197549     0.13900
H1385       H  0.47069103  0.73479007  0.68720983     0.11600
H1386       H  0.47664455  0.73273896  0.60211863     0.13600
C1387       C  0.69979393  0.85319993  0.65126551     0.19700
C1388       C  0.72703012  0.84269871  0.67517529    -0.18400
C1389       C  0.76102929  0.85959406  0.67291328    -0.10700
C1390       C  0.76772013  0.88802282  0.64737911     0.22000
C1391       C  0.74004823  0.89904718  0.62438979    -0.20000
C1392       C  0.70649235  0.88178056  0.62611981    -0.10800
C1393       C  0.80355343  0.90576883  0.64245630    -0.15000
C1394       C  0.82754346  0.90721357  0.66928787    -0.28900
C1395       C  0.66278984  0.83811246  0.65604020    -0.03100
C1396       C  0.64153475  0.83471177  0.62680309    -0.39700
H1397       H  0.72201546  0.82135541  0.69542034     0.13100
H1398       H  0.78196806  0.85002932  0.69078114     0.12700
H1399       H  0.74428699  0.92151980  0.60539134     0.12200
H1400       H  0.68531921  0.89169465  0.60868258     0.12400
H1401       H  0.81012685  0.91866126  0.61586048     0.15200
H1402       H  0.82057410  0.89653746  0.69687676     0.13900
H1403       H  0.65127077  0.83625996  0.68429408     0.11600
H1404       H  0.65437541  0.83509998  0.59893440     0.13600
C1405       C  0.49595286  0.61317207  0.75112479     0.19700
C1406       C  0.47573150  0.63503439  0.77598327    -0.18400
C1407       C  0.48288280  0.67162787  0.77782777    -0.10700
C1408       C  0.50423494  0.68317660  0.52084155     0.22000
C1409       C  0.53226463  0.65959104  0.50924697    -0.20000
C1410       C  0.52553823  0.62278957  0.50618802    -0.10800
C1411       C  0.51177530  0.72221226  0.52270836    -0.15000
C1412       C  0.48736573  0.74704956  0.51275132    -0.28900
C1413       C  0.48800252  0.57426238  0.75161890    -0.03100
C1414       C  0.49632587  0.54868120  0.48653974    -0.39700
H1415       H  0.45427143  0.62373107  0.79410988     0.13100
H1416       H  0.46691059  0.68781076  0.79739781     0.12700
H1417       H  0.55924959  0.66977699  0.50192658     0.12200
H1418       H  0.54758077  0.60517674  0.49704106     0.12400
H1419       H  0.53893691  0.73070436  0.52941958     0.15200
H1420       H  0.46312304  0.74082846  0.75606543     0.13900
H1421       H  0.47272837  0.56375995  0.77578077     0.11600
H1422       H  0.51282544  0.55986552  0.46344809     0.13600
C1423       C  0.70668753  0.92981234  0.76986003     0.19700
C1424       C  0.72803498  0.92719484  0.80124480    -0.18400
C1425       C  0.76567466  0.93340542  0.79858264    -0.10700
C1426       C  0.78341525  0.94227196  0.76413669     0.22000
C1427       C  0.76188813  0.94579205  0.73286599    -0.20000
C1428       C  0.72416650  0.93938242  0.73549008    -0.10800
C1429       C  0.82386274  0.94839607  0.75956068    -0.15000
C1430       C  0.84707372  0.93997802  0.53389318    -0.28900
C1431       C  0.66704997  0.92032514  0.77439908    -0.03100
C1432       C  0.64142659  0.92410800  0.49777940    -0.39700
H1433       H  0.71550694  0.92008754  0.82815814     0.13100
H1434       H  0.78033429  0.93136240  0.82385594     0.12700
H1435       H  0.77436949  0.95316536  0.70603696     0.12200
H1436       H  0.70923738  0.94134697  0.71033996     0.12400
H1437       H  0.83205742  0.96823847  0.48605079     0.15200
H1438       H  0.83834937  0.93055808  0.81284860     0.13900
H1439       H  0.65842216  0.90725106  0.80043469     0.11600
H1440       H  0.64843943  0.93994826  0.47300435     0.13600
C1441       C  0.36057210  0.21317441  0.62076042     0.19700
C1442       C  0.36825812  0.23387438  0.58859545    -0.18400
C1443       C  0.37881406  0.26967988  0.59113661    -0.10700
C1444       C  0.38235743  0.28556747  0.62612836     0.22000
C1445       C  0.37267661  0.26550445  0.65825882    -0.20000
C1446       C  0.36240508  0.22955679  0.65577520    -0.10800
C1447       C  0.39517585  0.32306167  0.63024017    -0.15000
C1448       C  0.41389645  0.34128893  0.60319666    -0.28900
C1449       C  0.35502136  0.17399898  0.61642730    -0.03100
C1450       C  0.34285596  0.15182454  0.64396906    -0.39700
H1451       H  0.36669078  0.22208193  0.56129638     0.13100
H1452       H  0.38385470  0.28467071  0.56557689     0.12700
H1453       H  0.37413018  0.27736766  0.68550885     0.12200
H1454       H  0.35743144  0.21466020  0.68142869     0.12400
H1455       H  0.38863804  0.33633332  0.65649573     0.15200
H1456       H  0.42083089  0.32897643  0.57665573     0.13900
H1457       H  0.36487434  0.16247036  0.59022319     0.11600
H1458       H  0.33289622  0.16259698  0.67042748     0.13600
C1459       C  0.18038262  0.96817957  0.63888252     0.19700
C1460       C  0.15538368  0.98334759  0.61480400    -0.18400
C1461       C  0.11779971  0.97960393  0.62176511    -0.10700
C1462       C  0.10389227  0.95995603  0.65286873     0.22000
C1463       C  0.12882112  0.94500938  0.67724439    -0.20000
C1464       C  0.16654583  0.94898510  0.67044547    -0.10800
C1465       C  0.06382826  0.95525258  0.66126556    -0.15000
C1466       C  0.03827786  0.96046330  0.63590534    -0.28900
C1467       C  0.22010320  0.97519231  0.63076647    -0.03100
C1468       C  0.24735915  0.96361971  0.65180695    -0.39700
H1469       H  0.16499574  0.99874749  0.59066335     0.13100
H1470       H  0.09990544  0.99304700  0.60318190     0.12700
H1471       H  0.11905690  0.93024009  0.70179362     0.12200
H1472       H  0.18435263  0.93721068  0.69031296     0.12400
H1473       H  0.05524456  0.94550547  0.68883194     0.15200
H1474       H  0.04659003  0.96771912  0.60763227     0.13900
H1475       H  0.22711999  0.99323447  0.60761964     0.11600
H1476       H  0.24151674  0.94694056  0.67615374     0.13600
C1477       C  0.44185903  0.28097180  0.72071980     0.19700
C1478       C  0.45647703  0.25848044  0.69269486    -0.18400
C1479       C  0.45455302  0.22110819  0.69663377    -0.10700
C1480       C  0.43843395  0.20529396  0.72892211     0.22000
C1481       C  0.42363576  0.22769889  0.75695519    -0.20000
C1482       C  0.42514047  0.26502639  0.75283303    -0.10800
C1483       C  0.43375123  0.16569250  0.73062090    -0.15000
C1484       C  0.43310795  0.14409995  0.50602942    -0.28900
C1485       C  0.44388166  0.32068948  0.71504472    -0.03100
C1486       C  0.43548731  0.34169910  0.48289574    -0.39700
H1487       H  0.45719057  0.26731903  0.40451780     0.13100
H1488       H  0.45156031  0.20200757  0.41164607     0.12700
H1489       H  0.40962293  0.21654658  0.78149908     0.12200
H1490       H  0.41226296  0.28103311  0.77451896     0.12400
H1491       H  0.43230003  0.15237202  0.70410536     0.15200
H1492       H  0.43236144  0.15985782  0.78907332     0.13900
H1493       H  0.45158793  0.33077802  0.68734243     0.11600
H1494       H  0.43506815  0.33476021  0.77130778     0.13600
C1495       C  0.11150868  0.02352918  0.74257330     0.19700
C1496       C  0.13035205  0.03396943  0.45976276    -0.18400
C1497       C  0.16513644  0.04616042  0.70830315    -0.10700
C1498       C  0.18339384  0.04953580  0.74158463     0.22000
C1499       C  0.16434966  0.04212718  0.77557166    -0.20000
C1500       C  0.12875849  0.02944492  0.77602027    -0.10800
C1501       C  0.22332042  0.05497532  0.73928169    -0.15000
C1502       C  0.24250610  0.05800261  0.52365340    -0.28900
C1503       C  0.07497697  0.00705156  0.74224246    -0.03100
C1504       C  0.06057059  0.98898915  0.51944183    -0.39700
H1505       H  0.11889096  0.02815812  0.43332857     0.13100
H1506       H  0.18166149  0.04933266  0.43416945     0.12700
H1507       H  0.17702054  0.04438151  0.80193035     0.12200
H1508       H  0.11500214  0.02404994  0.80266772     0.12400
H1509       H  0.23669441  0.04918537  0.71250213     0.15200
H1510       H  0.22965620  0.05839401  0.55134434     0.13900
H1511       H  0.05814223  0.01526410  0.46750172     0.11600
H1512       H  0.07867297  0.97786969  0.79278385     0.13600
C1513       C  0.87686053  0.18174425  0.63769889     0.19700
C1514       C  0.88172402  0.16187903  0.67055783    -0.18400
C1515       C  0.88678877  0.12456010  0.66980370    -0.10700
C1516       C  0.88761761  0.10588810  0.63586255     0.22000
C1517       C  0.88160683  0.12564890  0.60311908    -0.20000
C1518       C  0.87656120  0.16299787  0.60387302    -0.10800
C1519       C  0.89518610  0.06630793  0.63298100    -0.15000
C1520       C  0.90593137  0.04515948  0.66126557    -0.28900
C1521       C  0.87492000  0.22189091  0.63991862    -0.03100
C1522       C  0.86439248  0.24395272  0.61226414    -0.39700
H1523       H  0.88208862  0.17539900  0.69706990     0.13100
H1524       H  0.89033638  0.11087971  0.69600610     0.12700
H1525       H  0.88155581  0.11226006  0.57654600     0.12200
H1526       H  0.87361872  0.17693412  0.57767232     0.12400
H1527       H  0.89261705  0.05414542  0.60590155     0.15200
H1528       H  0.90877671  0.05616923  0.68869388     0.13900
H1529       H  0.88419498  0.23387216  0.66519958     0.11600
H1530       H  0.85519429  0.23269795  0.58666119     0.13600
C1531       C  0.60601981  0.44282714  0.61556094     0.19700
C1532       C  0.62917018  0.44745145  0.64530172    -0.18400
C1533       C  0.66702721  0.44191277  0.64079241    -0.10700
C1534       C  0.68314755  0.43205842  0.60596724     0.22000
C1535       C  0.66016135  0.42882677  0.57595390    -0.20000
C1536       C  0.62236296  0.43414964  0.58051720    -0.10800
C1537       C  0.72304091  0.42320089  0.59962091    -0.15000
C1538       C  0.74865367  0.42618467  0.62533160    -0.28900
C1539       C  0.56538308  0.44738856  0.62232390    -0.03100
C1540       C  0.54025733  0.43737635  0.59810509    -0.39700
H1541       H  0.61785945  0.45481216  0.67249334     0.13100
H1542       H  0.68309081  0.44482639  0.66498864     0.12700
H1543       H  0.67150110  0.42178483  0.54866237     0.12200
H1544       H  0.60641594  0.43154909  0.55622080     0.12400
H1545       H  0.73128576  0.41193188  0.57281343     0.15200
H1546       H  0.74101750  0.43667218  0.65256076     0.13900
H1547       H  0.55586641  0.45928613  0.64840768     0.11600
H1548       H  0.54922251  0.42604726  0.57170919     0.13600
C1549       C  0.95959646  0.12659813  0.75362560     0.19700
C1550       C  0.96160848  0.14724406  0.72074956    -0.18400
C1551       C  0.96288448  0.18469643  0.72215187    -0.10700
C1552       C  0.96173078  0.20437842  0.50818796     0.22000
C1553       C  0.96253062  0.18317177  0.54057855    -0.20000
C1554       C  0.96065849  0.14586091  0.53874923    -0.10800
C1555       C  0.95659974  0.24366460  0.51253412    -0.15000
C1556       C  0.95976280  0.26520999  0.73223927    -0.28900
C1557       C  0.95614240  0.08702171  0.75098657    -0.03100
C1558       C  0.94537755  0.06592705  0.77997582    -0.39700
H1559       H  0.96099306  0.13440673  0.69389224     0.13100
H1560       H  0.96214903  0.19951515  0.69620605     0.12700
H1561       H  0.96348390  0.19559317  0.56763417     0.12200
H1562       H  0.96159559  0.13078301  0.56451777     0.12400
H1563       H  0.94561867  0.25230971  0.53950690     0.15200
H1564       H  0.97058234  0.25703955  0.70506572     0.13900
H1565       H  0.96316899  0.07477205  0.72430258     0.11600
H1566       H  0.93575951  0.07904705  0.55706030     0.13600
C1567       C  0.69035136  0.34407637  0.47846554     0.19700
C1568       C  0.66972100  0.35380343  0.44808079    -0.18400
C1569       C  0.63390611  0.36568918  0.45348296    -0.10700
C1570       C  0.61792271  0.36860639  0.48961142     0.22000
C1571       C  0.63738209  0.35611554  0.51982035    -0.20000
C1572       C  0.67340471  0.34426174  0.51447648    -0.10800
C1573       C  0.58140655  0.38507640  0.49650728    -0.15000
C1574       C  0.56683232  0.41065459  0.71766835    -0.28900
C1575       C  0.73022634  0.33933090  0.47143069    -0.03100
C1576       C  0.75410059  0.33494919  0.74607879    -0.39700
H1577       H  0.67150920  0.32856525  0.68103755     0.13100
H1578       H  0.61094314  0.35477042  0.69189714     0.12700
H1579       H  0.62534602  0.35726883  0.54785221     0.12200
H1580       H  0.68801787  0.33717706  0.53889414     0.12400
H1581       H  0.56591736  0.37783009  0.52193267     0.15200
H1582       H  0.57374869  0.40211678  0.68947688     0.13900
H1583       H  0.74337185  0.34514337  0.68958741     0.11600
H1584       H  0.74368519  0.32119763  0.52488358     0.13600
C1585       C  0.88075141  0.36811566  0.94894948     0.31000
C1586       C  0.87993139  0.36988903  0.77746732     0.31000
C1587       C  0.90414544  0.39733525  0.96693024    -0.05200
C1588       C  0.84356144  0.36844445  0.97024836    -0.06000
C1589       C  0.89847332  0.33520607  0.96864668    -0.05800
C1590       C  0.90299476  0.39947234  0.75655132    -0.05200
C1591       C  0.84290324  0.36970007  0.75962347    -0.06000
C1592       C  0.89817558  0.33716224  0.75696736    -0.05800
C1593       C  0.93867140  0.40944777  0.76442964    -0.31200
N1594       N  0.95946800  0.41623599  0.98411556     0.15300
C1595       C  0.93988688  0.40657847  0.95531396    -0.31200
H1596       H  0.95237727  0.40341554  0.92780914     0.17200
C1597       C  0.81249183  0.35002365  0.77158273    -0.30200
N1598       N  0.79251334  0.34173822  0.74265860     0.14000
C1599       C  0.81309954  0.34858079  0.96178579    -0.30200
C1600       C  0.92590434  0.31408714  0.76600710    -0.30500
N1601       N  0.94007682  0.29856931  0.73464321     0.14500
H1602       H  0.93595105  0.30962440  0.79345695     0.17100
C1603       C  0.92409416  0.30972784  0.95783247    -0.30500
H1604       H  0.93341132  0.30339170  0.92972856     0.17100
H1605       H  0.80719144  0.33809249  0.93481317     0.17100
H1606       H  0.95136917  0.40673771  0.79078170     0.17200
H1607       H  0.80597433  0.34037083  0.79951900     0.17100
C1608       C  0.87536734  0.37216529  0.82392188     0.31000
C1609       C  0.87646346  0.37120670  0.90291264     0.31000
C1610       C  0.90000880  0.39996690  0.84215072    -0.05200
C1611       C  0.83876650  0.38279678  0.84586656    -0.06000
C1612       C  0.88352167  0.33613877  0.84326344    -0.05800
C1613       C  0.90072386  0.39952160  0.88167978    -0.05200
C1614       C  0.83964077  0.38264738  0.88555864    -0.06000
C1615       C  0.88399792  0.33545461  0.88244144    -0.05800
C1616       C  0.90491710  0.43557952  0.89121363    -0.31200
N1617       N  0.91095165  0.45650483  0.86098370     0.15300
C1618       C  0.90348538  0.43612971  0.83188068    -0.31200
H1619       H  0.89780875  0.44808346  0.80532787     0.17200
C1620       C  0.80816118  0.40002748  0.89841984    -0.30200
N1621       N  0.78687501  0.40719636  0.86956744     0.14000
C1622       C  0.80586832  0.39901208  0.83751293    -0.30200
C1623       C  0.87437598  0.30049550  0.89314939    -0.30500
N1624       N  0.87106488  0.27990347  0.86280326     0.14500
H1625       H  0.86686903  0.29136856  0.92104890     0.17100
C1626       C  0.87355389  0.30185512  0.83289953    -0.30500
H1627       H  0.86600582  0.29368373  0.80555695     0.17100
H1628       H  0.79666568  0.40593566  0.81023939     0.17100
H1629       H  0.90051683  0.44715173  0.91838707     0.17200
H1630       H  0.80097518  0.40756635  0.92673831     0.17100
C1631       C  0.36937138  0.02747765  0.80603181     0.31000
C1632       C  0.36932433  0.02608499  0.97707034     0.31000
C1633       C  0.39592049  0.00058027  0.78564686    -0.05200
C1634       C  0.33285384  0.02407426  0.78726571    -0.06000
C1635       C  0.38455529  0.06238679  0.78564665    -0.05800
C1636       C  0.39507910  0.99938250  0.99590800    -0.05200
C1637       C  0.33250919  0.02325083  0.99855571    -0.06000
C1638       C  0.38444251  0.06078041  0.99503757    -0.05800
C1639       C  0.43127792  0.99302312  0.98409884    -0.31200
N1640       N  0.45319550  0.98701377  0.76343592     0.15300
C1641       C  0.43230805  0.99383992  0.79418198    -0.31200
H1642       H  0.44420577  0.99706037  0.82081227     0.17200
C1643       C  0.30043658  0.03980260  0.98887465    -0.30200
N1644       N  0.28122879  0.04911727  0.76819649     0.14000
C1645       C  0.30029966  0.04093469  0.79814548    -0.30200
C1646       C  0.40691508  0.08818564  0.98212090    -0.30500
N1647       N  0.41595953  0.11012416  0.76348056     0.14500
H1648       H  0.41598703  0.09266598  0.95349324     0.17100
C1649       C  0.40477124  0.09213176  0.79494462    -0.30500
H1650       H  0.41164375  0.10017621  0.82252815     0.17100
H1651       H  0.29214326  0.04947193  0.82593016     0.17100
H1652       H  0.44323355  0.99726788  0.95648080     0.17200
H1653       H  0.29430658  0.04901792  0.96132098     0.17100
C1654       C  0.36514418  0.02213742  0.93124901     0.31000
C1655       C  0.36429611  0.02315339  0.85237486     0.31000
C1656       C  0.39236736  0.99703213  0.91013799    -0.05200
C1657       C  0.32987466  0.00750692  0.91373647    -0.06000
C1658       C  0.36816419  0.05858477  0.91130595    -0.05800
C1659       C  0.39174684  0.99734391  0.87060806    -0.05200
C1660       C  0.32888316  0.00830361  0.87399817    -0.06000
C1661       C  0.36803490  0.05927137  0.87211828    -0.05800
C1662       C  0.39879502  0.96176256  0.86037729    -0.31200
N1663       N  0.40791577  0.94163018  0.88963322     0.15300
C1664       C  0.40002931  0.96142304  0.91981934    -0.31200
H1665       H  0.39692316  0.94920646  0.94708394     0.17200
C1666       C  0.29757343  0.98950109  0.86568272    -0.30200
N1667       N  0.27994438  0.97848082  0.89791553     0.14000
C1668       C  0.30054800  0.98715338  0.92666694    -0.30200
C1669       C  0.35234287  0.09201417  0.86281678    -0.30500
N1670       N  0.34558665  0.11152350  0.89369375     0.14500
H1671       H  0.34343107  0.09997758  0.83570835     0.17100
C1672       C  0.35223414  0.09053915  0.92301723    -0.30500
H1673       H  0.34373994  0.09757054  0.95117001     0.17100
H1674       H  0.29439057  0.97877010  0.95512091     0.17100
H1675       H  0.39477117  0.94990370  0.83364465     0.17200
H1676       H  0.28884651  0.98284488  0.83831596     0.17100
C1677       C  0.52012455  0.87493960  0.79882641     0.31000
C1678       C  0.51631824  0.87343401  0.97000154     0.31000
C1679       C  0.49947291  0.90706882  0.78031056    -0.01200
C1680       C  0.55712422  0.87959161  0.77665501    -0.06000
C1681       C  0.50693343  0.84160886  0.77972849    -0.05800
C1682       C  0.49698285  0.90521231  0.99047187    -0.05200
C1683       C  0.55493308  0.87904086  0.98710427    -0.06000
C1684       C  0.49840427  0.84208574  0.99296823    -0.05800
C1685       C  0.48914400  0.94029726  0.98021551    -0.31200
N1686       N  0.48249251  0.96215253  0.76158072     0.15300
C1687       C  0.49227912  0.94216537  0.79113445    -0.31200
H1688       H  0.49343027  0.95284060  0.81883097     0.17200
C1689       C  0.58485533  0.89974796  0.97468433    -0.30200
N1690       N  0.60596561  0.90930677  0.75264773     0.14000
C1691       C  0.58770394  0.89960915  0.78455089    -0.30200
C1692       C  0.48544294  0.80871940  0.98480437    -0.30500
N1693       N  0.49809775  0.78741165  0.75788360     0.14500
H1694       H  0.46665446  0.80233277  0.96365297     0.17100
C1695       C  0.51655741  0.80575897  0.78284072    -0.30500
H1696       H  0.53341136  0.79364891  0.80350173     0.17100
H1697       H  0.59475503  0.90905836  0.81159339     0.17100
H1698       H  0.48900257  0.95122414  0.95233145     0.17200
H1699       H  0.59043099  0.91007184  0.94684175     0.17100
C1700       C  0.51580332  0.86826098  0.92370844     0.31000
C1701       C  0.51526877  0.86976957  0.84499286     0.31000
C1702       C  0.49072912  0.89610001  0.90520190    -0.05200
C1703       C  0.55285369  0.87097277  0.90241247    -0.06000
C1704       C  0.50272767  0.83309731  0.90457117    -0.05800
C1705       C  0.49107252  0.89742132  0.86575438    -0.05200
C1706       C  0.55258316  0.87107490  0.86295458    -0.06000
C1707       C  0.49827291  0.83544551  0.86546337    -0.05800
C1708       C  0.45578266  0.90726060  0.85702999    -0.31200
N1709       N  0.43550062  0.91500991  0.88795114     0.15300
C1710       C  0.45514937  0.90491976  0.91695052    -0.31200
H1711       H  0.44334129  0.90238922  0.94489261     0.17200
C1712       C  0.58316925  0.85137783  0.85121107    -0.30200
N1713       N  0.60303366  0.84232949  0.88008970     0.14000
C1714       C  0.58365679  0.85129170  0.91109299    -0.30200
C1715       C  0.48554966  0.80228312  0.85548472    -0.30500
N1716       N  0.49369476  0.77810360  0.88181360     0.14500
H1717       H  0.47111023  0.79559225  0.83109685     0.17100
C1718       C  0.50794929  0.79634275  0.90996048    -0.30500
H1719       H  0.52255149  0.78363380  0.93198177     0.17100
H1720       H  0.58921546  0.84004876  0.93804025     0.17100
H1721       H  0.44441222  0.90653948  0.82988790     0.17200
H1722       H  0.58913250  0.84083492  0.82376189     0.17100
C1723       C  0.02874412  0.52487957  0.93937262     0.31000
C1724       C  0.02726708  0.52786444  0.76819223     0.31000
C1725       C  0.00535364  0.49675370  0.96097537    -0.05200
C1726       C  0.06649037  0.51758540  0.95684351    -0.06000
C1727       C  0.02088248  0.56108379  0.95892941    -0.05800
C1728       C  0.00502337  0.49867614  0.74959568    -0.05200
C1729       C  0.06488519  0.52309682  0.74608412    -0.06000
C1730       C  0.01608900  0.56396641  0.74928318    -0.05800
C1731       C  0.99660984  0.46370535  0.76069189    -0.31200
N1732       N  0.98645830  0.44450349  0.73132642     0.15300
C1733       C  0.99652196  0.46185234  0.95141445    -0.31200
H1734       H  0.99730733  0.45078591  0.92378271     0.17200
C1735       C  0.10085109  0.53047679  0.75394187    -0.30200
N1736       N  0.12140494  0.53332557  0.72165188     0.14000
C1737       C  0.10189152  0.52432368  0.94394435    -0.30200
C1738       C  0.02804476  0.59849000  0.75832415    -0.30500
N1739       N  0.03082434  0.61982970  0.72809393     0.14500
H1740       H  0.03887008  0.60660221  0.78433040     0.17100
C1741       C  0.03474598  0.59461003  0.94750304    -0.30500
H1742       H  0.04480729  0.60236312  0.91993689     0.17100
H1743       H  0.11091154  0.53027505  0.91551842     0.17100
H1744       H  0.99820452  0.45234856  0.78829253     0.17200
H1745       H  0.11094433  0.53554409  0.78115962     0.17100
C1746       C  0.02268853  0.52570154  0.81458714     0.31000
C1747       C  0.02296770  0.52452631  0.89353148     0.31000
C1748       C  0.99108198  0.50426265  0.83587451    -0.05200
C1749       C  0.05621555  0.50943605  0.83283449    -0.06000
C1750       C  0.01537332  0.56176056  0.83469732    -0.05800
C1751       C  0.99132625  0.50385149  0.87563256    -0.05200
C1752       C  0.05565402  0.50845982  0.87187162    -0.06000
C1753       C  0.01590399  0.56122813  0.87445178    -0.05800
C1754       C  0.95655079  0.49420058  0.88818510    -0.31200
N1755       N  0.93668769  0.48479622  0.85903884     0.15300
C1756       C  0.95606611  0.49423877  0.82741278    -0.31200
H1757       H  0.94520035  0.49332162  0.80003920     0.17200
C1758       C  0.07685756  0.47952829  0.88147240    -0.30200
N1759       N  0.09433395  0.46618365  0.85099783     0.14000
C1760       C  0.07965528  0.48190413  0.82121303    -0.30200
C1761       C  0.98853068  0.58516221  0.88625614    -0.30500
N1762       N  0.97405864  0.60170793  0.85728889     0.14500
H1763       H  0.97588412  0.58677280  0.91386795     0.17100
C1764       C  0.98704216  0.58540926  0.82667214    -0.30500
H1765       H  0.97313853  0.58759479  0.80093563     0.17100
H1766       H  0.08480373  0.47261430  0.79312196     0.17100
H1767       H  0.94614417  0.49343397  0.91673652     0.17200
H1768       H  0.07797937  0.46753745  0.90883366     0.17100
O1769       O  0.00633096  0.96653140  0.99109464    -0.73400
O1770       O  0.90493377  0.94155553  0.99869767    -0.73400
O1771       O  0.94439571  0.00347309  0.99699808    -0.73500
O1772       O  0.96936088  0.90292562  0.99327069    -0.73500
O1773       O  0.96680562  0.90800837  0.80600428    -0.73500
O1774       O  0.94865505  0.00895236  0.80852186    -0.73500
O1775       O  0.90600399  0.94925456  0.81080910    -0.73400
O1776       O  0.00850571  0.96788649  0.80326126    -0.73500
Ni1777     Ni  0.95598680  0.95339856  0.99272311     1.25400
Ni1778     Ni  0.95741007  0.95840046  0.80914536     1.25400
C1779       C  0.02423579  0.97305513  0.77135996     0.88800
C1780       C  0.88775936  0.94778548  0.78162645     0.88700
C1781       C  0.94136029  0.01880159  0.02857481     0.88700
C1782       C  0.97463940  0.88592128  0.02372161     0.88900
O1783       O  0.93583029  0.88615887  0.93323423    -0.73400
O1784       O  0.92217669  0.98762070  0.93277829    -0.73400
O1785       O  0.87745692  0.92938685  0.93734714    -0.73500
O1786       O  0.98158625  0.94312785  0.92783606    -0.73500
O1787       O  0.97684603  0.94498855  0.86682807    -0.73500
O1788       O  0.87455096  0.92714378  0.87596241    -0.73500
O1789       O  0.91607852  0.98770249  0.87183288    -0.73400
O1790       O  0.93355186  0.88554774  0.87155899    -0.73500
Ni1791     Ni  0.92939656  0.93679052  0.93497846     1.25400
Ni1792     Ni  0.92536478  0.93654217  0.86940096     1.25400
C1793       C  0.93619143  0.86908041  0.90275028     0.88800
C1794       C  0.91631432  0.00450198  0.90263144     0.88700
C1795       C  0.85954596  0.92382284  0.90842129     0.88700
C1796       C  0.99641203  0.94599585  0.89511374     0.88900
O1797       O  0.41877637  0.46511507  0.76928058    -0.73400
O1798       O  0.51854419  0.43462694  0.75709848    -0.73400
O1799       O  0.48323337  0.49880646  0.75917573    -0.73500
O1800       O  0.45460478  0.40056575  0.76700850    -0.73500
O1801       O  0.45593790  0.39497383  0.95246050    -0.73500
O1802       O  0.48354817  0.49469306  0.95054987    -0.73500
O1803       O  0.51905011  0.43139121  0.94718432    -0.73400
O1804       O  0.41806611  0.45911923  0.95600213    -0.73500
Ni1805     Ni  0.46883636  0.44987796  0.76528433     1.25400
Ni1806     Ni  0.46886537  0.44521567  0.94931117     1.25400
C1807       C  0.40279390  0.46266264  0.98838472     0.88800
C1808       C  0.53640749  0.42478151  0.97629567     0.88700
C1809       C  0.48607169  0.51365749  0.72697735     0.88700
C1810       C  0.44662265  0.38302555  0.73834514     0.88900
O1811       O  0.44721529  0.49272274  0.83095978    -0.73400
O1812       O  0.41905163  0.39369133  0.82840177    -0.73400
O1813       O  0.38308147  0.45624710  0.83343128    -0.73500
O1814       O  0.48381123  0.42943027  0.82539637    -0.73500
O1815       O  0.48574177  0.42890699  0.88670655    -0.73500
O1816       O  0.38267023  0.44863481  0.89474425    -0.73500
O1817       O  0.42270198  0.38901252  0.88966535    -0.73400
O1818       O  0.44431365  0.48966585  0.89258903    -0.73500
Ni1819     Ni  0.43335453  0.44315006  0.82744063     1.25400
Ni1820     Ni  0.43411620  0.43903943  0.89317399     1.25400
C1821       C  0.44979406  0.50771848  0.86249314     0.88800
C1822       C  0.41575757  0.37526741  0.85842345     0.88700
C1823       C  0.36596587  0.45507447  0.86500828     0.88700
C1824       C  0.50171415  0.42537827  0.85462360     0.88900
C1825       C  0.18785663  0.43789134  0.88091358     0.19700
C1826       C  0.21063045  0.44329258  0.84886975    -0.18400
C1827       C  0.24842573  0.44362097  0.85140757    -0.10700
C1828       C  0.26431738  0.43904604  0.88604764     0.22000
C1829       C  0.24172559  0.43161891  0.91756153    -0.20000
C1830       C  0.20388197  0.43156683  0.91515044    -0.10800
C1831       C  0.30432097  0.44070083  0.88979091    -0.15000
C1832       C  0.32629469  0.45949007  0.86599019    -0.28900
C1833       C  0.14786993  0.44364611  0.88098636    -0.03100
C1834       C  0.12827597  0.44661463  0.85016440    -0.39700
H1835       H  0.19965532  0.44866634  0.82198643     0.13100
H1836       H  0.26502021  0.44742300  0.82610557     0.12700
H1837       H  0.25334565  0.42681162  0.94428976     0.12200
H1838       H  0.18703019  0.42752458  0.94034884     0.12400
H1839       H  0.31608472  0.42535061  0.91218759     0.15200
H1840       H  0.31502123  0.47531934  0.84387678     0.13900
H1841       H  0.13505225  0.44990014  0.90788233     0.11600
H1842       H  0.14044572  0.43955664  0.82318403     0.13600
C1843       C  0.92852753  0.76870905  0.88117193     0.19700
C1844       C  0.92788313  0.74855051  0.84854332    -0.18400
C1845       C  0.93314006  0.71143244  0.84965357    -0.10700
C1846       C  0.93855674  0.69368039  0.88375621     0.22000
C1847       C  0.93665577  0.71357418  0.91664555    -0.20000
C1848       C  0.93131894  0.75059724  0.91551790    -0.10800
C1849       C  0.95101995  0.65589972  0.88601748    -0.15000
C1850       C  0.95060941  0.63259582  0.85774584    -0.28900
C1851       C  0.92718220  0.80843169  0.87816810    -0.03100
C1852       C  0.93898852  0.82989788  0.90479355    -0.39700
H1853       H  0.92500031  0.76175906  0.82184725     0.13100
H1854       H  0.93487572  0.69742694  0.82348474     0.12700
H1855       H  0.94051124  0.70057852  0.94329940     0.12200
H1856       H  0.93001330  0.76470994  0.94164367     0.12400
H1857       H  0.96484004  0.64824439  0.91098945     0.15200
H1858       H  0.93710935  0.63947557  0.83243418     0.13900
H1859       H  0.91717189  0.82038452  0.85286322     0.11600
H1860       H  0.94941282  0.81874749  0.93011198     0.13600
C1861       C  0.30211897  0.49137881  0.97428769     0.19700
C1862       C  0.28433819  0.51698445  0.95253342    -0.18400
C1863       C  0.24670890  0.52323050  0.95773105    -0.10700
C1864       C  0.22569538  0.50347519  0.98455953     0.22000
C1865       C  0.24349425  0.47752756  0.00579325    -0.20000
C1866       C  0.28103235  0.47146358  0.00081934    -0.10800
C1867       C  0.18538530  0.50839483  0.99129947    -0.15000
C1868       C  0.16348910  0.52595438  0.96802261    -0.28900
C1869       C  0.34221796  0.48509064  0.96777596    -0.03100
C1870       C  0.36333127  0.47095464  0.99394891    -0.39700
H1871       H  0.29363011  0.52138086  0.67058602     0.13100
H1872       H  0.22910418  0.53507036  0.67783826     0.12700
H1873       H  0.22808365  0.46126216  0.02587608     0.12200
H1874       H  0.29310659  0.45039189  0.01712311     0.12400
H1875       H  0.17266652  0.49465315  0.01530324     0.15200
H1876       H  0.17136619  0.54377573  0.68899135     0.13900
H1877       H  0.34982082  0.49465489  0.69263621     0.11600
H1878       H  0.35134842  0.46562108  0.02148548     0.13600
C1879       C  0.00887619  0.79004985  0.99654260     0.19700
C1880       C  0.01283547  0.77017578  0.96353340    -0.18400
C1881       C  0.02168167  0.73346568  0.96448126    -0.10700
C1882       C  0.02711989  0.71576921  0.99864232     0.22000
C1883       C  0.02430926  0.73586523  0.03140128    -0.20000
C1884       C  0.01579834  0.77246091  0.03044463    -0.10800
C1885       C  0.03205265  0.67607186  0.00203567    -0.15000
C1886       C  0.04353640  0.65444872  0.97400056    -0.28900
C1887       C  0.99759615  0.82877282  0.99456954    -0.03100
C1888       C  0.98519543  0.84750418  0.02448611    -0.39700
H1889       H  0.00813906  0.78285796  0.93692497     0.13100
H1890       H  0.02275422  0.71891677  0.93858816     0.12700
H1891       H  0.02828928  0.72304068  0.05810597     0.12200
H1892       H  0.01463512  0.78648266  0.05659051     0.12400
H1893       H  0.02370312  0.66387556  0.02861863     0.15200
H1894       H  0.05187502  0.66606080  0.94717410     0.13900
H1895       H  0.99910690  0.84216056  0.96755751     0.11600
H1896       H  0.97363481  0.84026038  0.80348909     0.13600
C1897       C  0.48122293  0.67824551  0.90359005     0.19700
C1898       C  0.49672498  0.65836809  0.87382853    -0.18400
C1899       C  0.48962414  0.62159352  0.87097419    -0.10700
C1900       C  0.46656425  0.60401519  0.89767791     0.22000
C1901       C  0.45215867  0.62377682  0.92796564    -0.20000
C1902       C  0.45947934  0.66042193  0.93093582    -0.10800
C1903       C  0.45743607  0.56514786  0.89553649    -0.15000
C1904       C  0.45951717  0.54620059  0.86380412    -0.28900
C1905       C  0.48752927  0.71740610  0.90718907    -0.03100
C1906       C  0.49074946  0.73980840  0.87766746    -0.39700
H1907       H  0.51473967  0.67109538  0.85303895     0.13100
H1908       H  0.50262545  0.60707803  0.84811134     0.12700
H1909       H  0.43481489  0.61088470  0.94926240     0.12200
H1910       H  0.44753141  0.67507290  0.95432423     0.12400
H1911       H  0.44686061  0.55204479  0.92087315     0.15200
H1912       H  0.46765560  0.55931652  0.83786034     0.13900
H1913       H  0.48641133  0.72858965  0.93489016     0.11600
H1914       H  0.48848629  0.72926996  0.84981907     0.13600
C1915       C  0.70217960  0.84125985  0.90043599     0.19700
C1916       C  0.72064571  0.85096343  0.93214481    -0.18400
C1917       C  0.75561557  0.86535936  0.92875267    -0.10700
C1918       C  0.77286132  0.87040423  0.89341749     0.22000
C1919       C  0.75582692  0.85786447  0.86202287    -0.20000
C1920       C  0.72071554  0.84367725  0.86530408    -0.10800
C1921       C  0.80874542  0.88805232  0.88823976    -0.15000
C1922       C  0.82196221  0.91093922  0.91288351    -0.28900
C1923       C  0.66245663  0.83441812  0.90521326    -0.03100
C1924       C  0.64023711  0.83036195  0.87682704    -0.39700
H1925       H  0.70732625  0.84899821  0.95960087     0.13100
H1926       H  0.76875218  0.87280342  0.95381046     0.12700
H1927       H  0.76913340  0.86041180  0.83461712     0.12200
H1928       H  0.70813253  0.83622253  0.83997940     0.12400
H1929       H  0.82497244  0.88188794  0.86306117     0.15200
H1930       H  0.80645632  0.91763781  0.93814155     0.13900
H1931       H  0.65038407  0.83945185  0.93276155     0.11600
H1932       H  0.65135261  0.82488679  0.84906410     0.13600
C1933       C  0.49612550  0.60948295  0.00898408     0.19700
C1934       C  0.47076806  0.63231486  0.02708681    -0.18400
C1935       C  0.47752537  0.66905514  0.02937747    -0.10700
C1936       C  0.51080043  0.68704091  0.75513210     0.22000
C1937       C  0.53142061  0.66531046  0.73049422    -0.20000
C1938       C  0.52386694  0.62862481  0.72818711    -0.10800
C1939       C  0.51835520  0.72581762  0.75694350    -0.15000
C1940       C  0.49109052  0.74975431  0.75803691    -0.28900
C1941       C  0.48791754  0.57059453  0.00783422    -0.03100
C1942       C  0.49632109  0.55176420  0.72357853    -0.39700
H1943       H  0.44549756  0.62169631  0.03929909     0.13100
H1944       H  0.45743109  0.68603033  0.04348663     0.12700
H1945       H  0.55303780  0.67683525  0.71274520     0.12200
H1946       H  0.54038785  0.61245680  0.70913982     0.12400
H1947       H  0.54639075  0.73506834  0.75478844     0.15200
H1948       H  0.46505909  0.73791650  0.00071033     0.13900
H1949       H  0.46926391  0.55976074  0.02921760     0.11600
H1950       H  0.50833718  0.56158464  0.69731444     0.13600
C1951       C  0.70880402  0.91670964  0.01651283     0.19700
C1952       C  0.73389493  0.89244764  0.03124021    -0.18400
C1953       C  0.77136568  0.89971645  0.02958597    -0.10700
C1954       C  0.78489695  0.93161497  0.01297257     0.22000
C1955       C  0.75991292  0.95542036  0.99717218    -0.20000
C1956       C  0.72231228  0.94823143  0.99906485    -0.10800
C1957       C  0.82479973  0.94019002  0.01024159    -0.15000
C1958       C  0.84787526  0.94112522  0.78605417    -0.28900
C1959       C  0.66900575  0.90842325  0.02128703    -0.03100
C1960       C  0.64200770  0.92488243  0.74826619    -0.39700
H1961       H  0.72441951  0.86768010  0.04434479     0.13100
H1962       H  0.78957705  0.88002177  0.04097126     0.12700
H1963       H  0.76950138  0.97998507  0.98373480     0.12200
H1964       H  0.70395411  0.96774031  0.98757504     0.12400
H1965       H  0.83430028  0.95940572  0.73312135     0.15200
H1966       H  0.84053928  0.90958052  0.05661176     0.13900
H1967       H  0.66109607  0.88853654  0.04242201     0.11600
H1968       H  0.64981928  0.93717557  0.72166847     0.13600
C1969       C  0.35047990  0.21140636  0.87500044     0.19700
C1970       C  0.35268947  0.23381655  0.84349996    -0.18400
C1971       C  0.36228205  0.26979847  0.84654148    -0.10700
C1972       C  0.37083045  0.28400439  0.88120943     0.22000
C1973       C  0.36598682  0.26233887  0.91315291    -0.20000
C1974       C  0.35632342  0.22623764  0.91014686    -0.10800
C1975       C  0.38564559  0.32082872  0.88474388    -0.15000
C1976       C  0.40302788  0.33807432  0.85613932    -0.28900
C1977       C  0.34690802  0.17222827  0.86935274    -0.03100
C1978       C  0.33667831  0.14896969  0.89656661    -0.39700
H1979       H  0.34785569  0.22319448  0.81622916     0.13100
H1980       H  0.36326154  0.28615462  0.82153899     0.12700
H1981       H  0.37167653  0.27281228  0.94027888     0.12200
H1982       H  0.35564047  0.20980101  0.93512474     0.12400
H1983       H  0.38302366  0.33370695  0.91172641     0.15200
H1984       H  0.40650685  0.32538521  0.82931306     0.13900
H1985       H  0.35650998  0.16190486  0.84251145     0.11600
H1986       H  0.32687879  0.15888579  0.92348006     0.13600
C1987       C  0.17762579  0.96160320  0.88870152     0.19700
C1988       C  0.15153503  0.97929736  0.86781577    -0.18400
C1989       C  0.11421471  0.97418991  0.87543804    -0.10700
C1990       C  0.10164678  0.95073341  0.90415623     0.22000
C1991       C  0.12765132  0.93275443  0.92504414    -0.20000
C1992       C  0.16517013  0.93785802  0.91732881    -0.10800
C1993       C  0.06179139  0.94547623  0.91346514    -0.15000
C1994       C  0.03624415  0.95093043  0.88823542    -0.28900
C1995       C  0.21706442  0.97005949  0.88019967    -0.03100
C1996       C  0.24420196  0.96255769  0.90313720    -0.39700
H1997       H  0.16011139  0.99797463  0.84599553     0.13100
H1998       H  0.09539461  0.98977791  0.85957495     0.12700
H1999       H  0.11890327  0.91458447  0.94737357     0.12200
H2000       H  0.18404037  0.92308131  0.93389443     0.12400
H2001       H  0.05351221  0.93566039  0.94109094     0.15200
H2002       H  0.04498088  0.95775036  0.85991541     0.13900
H2003       H  0.22354576  0.98632430  0.85554639     0.11600
H2004       H  0.23803904  0.94864902  0.92927295     0.13600
C2005       C  0.45565203  0.27644352  0.96449381     0.19700
C2006       C  0.45149705  0.25448260  0.93360723    -0.18400
C2007       C  0.44669756  0.21742631  0.93822377    -0.10700
C2008       C  0.44684391  0.20119092  0.97375111     0.22000
C2009       C  0.45406491  0.22287270  0.00436685    -0.20000
C2010       C  0.45835610  0.26003133  0.99977418    -0.10800
C2011       C  0.43675753  0.16240760  0.97727692    -0.15000
C2012       C  0.42931376  0.14657961  0.76266398    -0.28900
C2013       C  0.45751167  0.31616272  0.95905815    -0.03100
C2014       C  0.43959695  0.34426660  0.74300082    -0.39700
H2015       H  0.46906835  0.26986520  0.66744464     0.13100
H2016       H  0.46541532  0.20446888  0.67421543     0.12700
H2017       H  0.45585901  0.21168018  0.03201341     0.12200
H2018       H  0.46389397  0.27576546  0.02396632     0.12400
H2019       H  0.42788847  0.15026033  0.95200042     0.15200
H2020       H  0.44287541  0.15441647  0.03507699     0.13900
H2021       H  0.46709336  0.32667375  0.93206279     0.11600
H2022       H  0.43746813  0.32888106  0.01303116     0.13600
C2023       C  0.10876135  0.02451168  0.99216887     0.19700
C2024       C  0.12929520  0.03374425  0.70885904    -0.18400
C2025       C  0.16443092  0.04277799  0.95860578    -0.10700
C2026       C  0.18101814  0.04965006  0.99228669     0.22000
C2027       C  0.15978662  0.04702031  0.02578321    -0.20000
C2028       C  0.12401291  0.03456887  0.02565701    -0.10800
C2029       C  0.22117003  0.05462117  0.99106877    -0.15000
C2030       C  0.24367525  0.05995240  0.76907423    -0.28900
C2031       C  0.07268868  0.00700747  0.99164675    -0.03100
C2032       C  0.06218887  0.98492189  0.76952145    -0.39700
H2033       H  0.11601246  0.03070019  0.68282439     0.13100
H2034       H  0.17912352  0.05170603  0.68169337     0.12700
H2035       H  0.17068375  0.05311333  0.05235195     0.12200
H2036       H  0.10857437  0.03230962  0.05189840     0.12400
H2037       H  0.23479569  0.05126248  0.96397001     0.15200
H2038       H  0.23094652  0.06657820  0.79590096     0.13900
H2039       H  0.05807256  0.01342068  0.71900238     0.11600
H2040       H  0.07607692  0.98112358  0.04386188     0.13600
C2041       C  0.87775937  0.17889094  0.88468339     0.19700
C2042       C  0.88099757  0.15806315  0.91714004    -0.18400
C2043       C  0.88599961  0.12083238  0.91534430    -0.10700
C2044       C  0.88847951  0.10326048  0.88078064     0.22000
C2045       C  0.88376675  0.12388284  0.84837979    -0.20000
C2046       C  0.87891307  0.16120912  0.85015273    -0.10800
C2047       C  0.89561606  0.06373448  0.87750170    -0.15000
C2048       C  0.91002473  0.04375808  0.90471673    -0.28900
C2049       C  0.87585139  0.21889390  0.88813888    -0.03100
C2050       C  0.86588297  0.24153104  0.86082339    -0.39700
H2051       H  0.87997252  0.17072938  0.94415285     0.13100
H2052       H  0.88775376  0.10616472  0.94128261     0.12700
H2053       H  0.88464762  0.11123584  0.82138768     0.12200
H2054       H  0.87721987  0.17595618  0.82425319     0.12400
H2055       H  0.88936408  0.05079215  0.85161956     0.15200
H2056       H  0.91709257  0.05621794  0.93045975     0.13900
H2057       H  0.88463119  0.23022162  0.91394535     0.11600
H2058       H  0.85702384  0.23080955  0.83483747     0.13600
C2059       C  0.60655470  0.42328367  0.86664907     0.19700
C2060       C  0.63135145  0.44833836  0.87980926    -0.18400
C2061       C  0.66910509  0.44236555  0.87632485    -0.10700
C2062       C  0.68311422  0.41077133  0.85997248     0.22000
C2063       C  0.65828058  0.38524754  0.84778729    -0.20000
C2064       C  0.62054302  0.39139564  0.85087656    -0.10800
C2065       C  0.72314089  0.40374375  0.85406312    -0.15000
C2066       C  0.74941852  0.41905335  0.87363447    -0.28900
C2067       C  0.56652108  0.43093321  0.87112099    -0.03100
C2068       C  0.54097593  0.41584568  0.85052130    -0.39700
H2069       H  0.62145784  0.47297814  0.89242903     0.13100
H2070       H  0.68712056  0.46290858  0.88579119     0.12700
H2071       H  0.66815573  0.36046537  0.83545352     0.12200
H2072       H  0.60253362  0.37087236  0.84134539     0.12400
H2073       H  0.73133748  0.38306730  0.83429568     0.15200
H2074       H  0.74192368  0.43693499  0.89634940     0.13900
H2075       H  0.55793812  0.45157125  0.89073427     0.11600
H2076       H  0.54910169  0.39808429  0.82793293     0.13600
C2077       C  0.95153302  0.11951380  0.00732042     0.19700
C2078       C  0.95623138  0.14060099  0.97493817    -0.18400
C2079       C  0.95618885  0.17803873  0.97690484    -0.10700
C2080       C  0.96291176  0.20218101  0.75671016     0.22000
C2081       C  0.96288997  0.18139252  0.78940206    -0.20000
C2082       C  0.96154170  0.14410155  0.78797887    -0.10800
C2083       C  0.95765534  0.24142392  0.76063683    -0.15000
C2084       C  0.95378144  0.25852335  0.98759372    -0.28900
C2085       C  0.95050926  0.07987935  0.00383532    -0.03100
C2086       C  0.93683925  0.05787125  0.03081659    -0.39700
H2087       H  0.95890757  0.12807283  0.94789634     0.13100
H2088       H  0.95783889  0.19314470  0.95106985     0.12700
H2089       H  0.96288544  0.19411291  0.81637147     0.12200
H2090       H  0.96194682  0.12943434  0.81401803     0.12400
H2091       H  0.94700431  0.25025028  0.78766128     0.15200
H2092       H  0.96757213  0.25022719  0.96179591     0.13900
H2093       H  0.96216596  0.06833212  0.97832285     0.11600
H2094       H  0.93831636  0.07720824  0.80690870     0.13600
C2095       C  0.69547833  0.35715754  0.72571285     0.19700
C2096       C  0.66711187  0.34797791  0.70300912    -0.18400
C2097       C  0.63270424  0.36348801  0.70892380    -0.10700
C2098       C  0.62671115  0.38947084  0.73680795     0.22000
C2099       C  0.65551173  0.39934642  0.75857627    -0.20000
C2100       C  0.68954890  0.38324344  0.75327525    -0.10800
C2101       C  0.59078365  0.40650170  0.74426704    -0.15000
C2102       C  0.57324488  0.41002937  0.97165205    -0.28900
C2103       C  0.73240090  0.34287303  0.71803221    -0.03100
C2104       C  0.75621116  0.32847105  0.99650160    -0.39700
H2105       H  0.68497198  0.35074853  0.91800663     0.13100
H2106       H  0.62237557  0.37126073  0.92711308     0.12700
H2107       H  0.65177989  0.42005095  0.77931418     0.12200
H2108       H  0.71160965  0.39206226  0.76989670     0.12400
H2109       H  0.58449062  0.41707014  0.77186035     0.15200
H2110       H  0.58949295  0.41862810  0.94731231     0.13900
H2111       H  0.74418300  0.34577657  0.94291496     0.11600
H2112       H  0.74179010  0.33211659  0.77404944     0.13600
loop_ 
_geom_bond_atom_site_label_1 
_geom_bond_atom_site_label_2 
_geom_bond_distance 
_geom_bond_site_symmetry_2 
_ccdc_geom_bond_type 
C1            C3   1.552       .  S
C1            C5   1.562       .  S
C1            C4   1.536       .  S
C1           C25   1.667       .  S
C2            C6   1.556       .  S
C2            C8   1.568       .  S
C2            C7   1.527       .  S
C2           C24   1.671       .  S
C3           C11   1.403       .  A
C3          C534   1.428       .  A
C4           C15   1.392       .  A
C4          C535   1.410       .  A
C5           C19   1.381       .  A
C5          C536   1.431       .  A
C6            C9   1.405       .  A
C6         C1587   1.426   1_554  A
C7           C13   1.387       .  A
C7         C1588   1.410   1_554  A
C8           C16   1.380       .  A
C8         C1589   1.433   1_554  A
C9           H22   1.078       .  S
C9         N1594   1.341   1_554  A
N10          C11   1.338       .  A
N10         C537   1.340       .  A
N10         N676   1.418       .  S
C11          H12   1.078       .  S
C13          H23   1.080       .  S
C13          N14   1.337   1_554  A
N14        C1599   1.344       .  A
N14        C2104   1.435       .  S
C15          H21   1.080       .  S
C15         N542   1.344       .  A
C16          H18   1.080       .  S
C16          N17   1.354   1_554  A
N17        C1603   1.351       .  A
N17        C2084   1.438       .  S
C19          H20   1.081       .  S
C19         N545   1.350       .  A
C24          C26   1.549       .  S
C24          C28   1.539       .  S
C24          C27   1.582       .  S
C25          C29   1.553       .  S
C25          C31   1.545       .  S
C25          C30   1.567       .  S
C26          C34   1.399       .  A
C26          C29   1.421       .  A
C27          C38   1.395       .  A
C27          C30   1.428       .  A
C28          C42   1.391       .  A
C28          C31   1.407       .  A
C29          C32   1.402       .  A
C30          C36   1.382       .  A
C31          C39   1.396       .  A
C32          H45   1.078       .  S
C32          N33   1.341       .  A
N33          C34   1.339       .  A
N33         N171   1.418       .  S
C34          H35   1.078       .  S
C36          H46   1.081       .  S
C36          N37   1.351       .  A
N37          C38   1.360       .  A
N37         C482   1.447       .  S
C38          H44   1.080       .  S
C39          H41   1.080       .  S
C39          N40   1.349       .  A
N40          C42   1.344       .  A
N40         C466   1.446       .  S
C42          H43   1.081       .  S
C47          C49   1.563   1_545  S
C47          C51   1.579       .  S
C47          C50   1.535       .  S
C47          C71   1.673       .  S
C48          C52   1.544   1_545  S
C48          C54   1.564       .  S
C48          C53   1.530       .  S
C48          C70   1.671       .  S
C49          C57   1.407       .  A
C49        C1636   1.424   1_554  A
C50          C61   1.392       .  A
C50        C1637   1.408   1_554  A
C51          C65   1.392       .  A
C51        C1638   1.429   1_554  A
C52          C55   1.398       .  A
C52         C577   1.425       .  A
C53          C59   1.385       .  A
C53         C578   1.410       .  A
C54          C62   1.377       .  A
C54         C579   1.429       .  A
C55          H68   1.078       .  S
C55         N584   1.338       .  A
N56          C57   1.344       .  A
N56        C1639   1.338   1_554  A
N56         N102   1.419       .  S
C57          H58   1.079       .  S
C59          H69   1.079       .  S
C59         N588   1.342       .  A
N60          C61   1.343       .  A
N60        C1643   1.343   1_554  A
N60         C446   1.440       .  S
C61          H67   1.081       .  S
C62          H64   1.079       .  S
C62         N591   1.355       .  A
N63          C65   1.359       .  A
N63        C1646   1.355   1_554  A
N63         C428   1.450       .  S
C65          H66   1.081       .  S
C70          C72   1.549   1_545  S
C70          C74   1.535       .  S
C70          C73   1.567       .  S
C71          C75   1.549   1_545  S
C71          C77   1.535       .  S
C71          C76   1.585       .  S
C72          C80   1.398       .  A
C72          C75   1.424       .  A
C73          C84   1.381   1_545  A
C73          C76   1.430       .  A
C74          C88   1.388       .  A
C74          C77   1.409       .  A
C75          C78   1.398       .  A
C76          C82   1.395   1_545  A
C77          C85   1.388       .  A
C78          H91   1.078       .  S
C78          N79   1.338       .  A
N79          C80   1.339       .  A
N79         N125   1.414       .  S
C80          H81   1.078       .  S
C82          H92   1.080       .  S
C82          N83   1.361       .  A
N83          C84   1.350       .  A
N83         C412   1.446       .  S
C84          H90   1.081       .  S
C85          H87   1.080       .  S
C85          N86   1.346       .  A
N86          C88   1.340       .  A
N86         C394   1.438       .  S
C88          H89   1.080       .  S
C93          C95   1.572       .  S
C93          C97   1.525       .  S
C93          C96   1.556       .  S
C93         C117   1.673       .  S
C94          C98   1.551       .  S
C94         C100   1.552       .  S
C94          C99   1.587       .  S
C94         C116   1.678       .  S
C95         C103   1.392       .  A
C95        C1682   1.423   1_554  A
C96         C107   1.391       .  A
C96        C1683   1.432   1_554  A
C97         C111   1.389       .  A
C97        C1684   1.382   1_554  A
C98         C101   1.386       .  A
C98         C623   1.424       .  A
C99         C105   1.399       .  A
C99         C624   1.432       .  A
C100        C108   1.374       .  A
C100        C625   1.380       .  A
C101        H114   1.078       .  S
C101        N630   1.351       .  A
N102        C103   1.351       .  A
N102       C1685   1.353   1_554  A
C103        H104   1.079       .  S
C105        H115   1.080       .  S
C105        N634   1.350       .  A
N106        C107   1.349       .  A
N106       C1689   1.349   1_554  A
N106        C376   1.447   1_554  S
C107        H113   1.080       .  S
C108        H110   1.079       .  S
C108        N637   1.344       .  A
N109        C111   1.347       .  A
N109       C1692   1.344   1_554  A
N109        C356   1.435       .  S
C111        H112   1.082       .  S
C116        C118   1.547       .  S
C116        C120   1.569       .  S
C116        C119   1.530       .  S
C117        C121   1.541       .  S
C117        C123   1.578       .  S
C117        C122   1.544       .  S
C118        C126   1.393       .  A
C118        C121   1.422       .  A
C119        C130   1.388       .  A
C119        C122   1.419       .  A
C120        C134   1.389       .  A
C120        C123   1.424       .  A
C121        C124   1.396       .  A
C122        C128   1.392       .  A
C123        C131   1.375       .  A
C124        H137   1.079       .  S
C124        N125   1.343       .  A
N125        C126   1.342       .  A
C126        H127   1.079       .  S
C128        H138   1.079       .  S
C128        N129   1.337       .  A
N129        C130   1.338       .  A
N129        C340   1.433       .  S
C130        H136   1.079       .  S
C131        H133   1.078       .  S
C131        N132   1.341       .  A
N132        C134   1.350       .  A
N132        C322   1.435       .  S
C134        H135   1.081       .  S
C139        C141   1.541       .  S
C139        C143   1.553       .  S
C139        C142   1.569       .  S
C139        C163   1.669       .  S
C140        C144   1.539   1_554  S
C140        C146   1.559   1_554  S
C140        C145   1.578   1_554  S
C140        C162   1.673       .  S
C141        C149   1.390   1_455  A
C141        C672   1.397       .  A
C142        C153   1.384       .  A
C142        C673   1.432       .  A
C143        C157   1.402       .  A
C143        C674   1.427       .  A
C144        C147   1.392   1_456  A
C144       C1725   1.402       .  A
C145        C151   1.394   1_556  A
C145       C1726   1.437       .  A
C146        C154   1.405   1_556  A
C146       C1727   1.420       .  A
C147        H160   1.079       .  S
C147        N148   1.348   1_554  A
N148       C1733   1.349       .  A
N148       N1594   1.419       .  S
C149        H150   1.078       .  S
C149        N676   1.350       .  A
C151        H161   1.081       .  S
C151        N152   1.358   1_554  A
N152       C1737   1.349       .  A
N152       C1868   1.445       .  S
C153        H159   1.082       .  S
C153        N680   1.351       .  A
C154        H156   1.079       .  S
C154        N155   1.341   1_554  A
N155       C1741   1.334       .  A
N155       C1886   1.445       .  S
C157        H158   1.079       .  S
C157        N683   1.334       .  A
C162        C164   1.576   1_455  S
C162        C166   1.554       .  S
C162        C165   1.540       .  S
C163        C167   1.563   1_455  S
C163        C169   1.549       .  S
C163        C168   1.528       .  S
C164        C172   1.388       .  A
C164        C167   1.430       .  A
C165        C176   1.392       .  A
C165        C168   1.404       .  A
C166        C180   1.401   1_455  A
C166        C169   1.430       .  A
C167        C170   1.384       .  A
C168        C174   1.380       .  A
C169        C177   1.397   1_455  A
C170        H183   1.080       .  S
C170        N171   1.354       .  A
N171        C172   1.357       .  A
C172        H173   1.079       .  S
C174        H184   1.079       .  S
C174        N175   1.343       .  A
N175        C176   1.348       .  A
N175        C250   1.441       .  S
C176        H182   1.080       .  S
C177        H179   1.079       .  S
C177        N178   1.336       .  A
N178        C180   1.332       .  A
N178        C266   1.437       .  S
C180        H181   1.079       .  S
O185       Ni193   1.916   1_455  S
O185        C723   1.276       .  A
O186       Ni193   1.940       .  S
O186        C724   1.278       .  A
O187       Ni193   1.919   1_545  S
O187        C197   1.277       .  A
O188       Ni193   1.941       .  S
O188        C198   1.281       .  A
O189       Ni194   1.910       .  S
O189       C1782   1.274       .  A
O190       Ni194   1.912   1_545  S
O190       C1781   1.274       .  A
O191       Ni194   1.922       .  S
O191        C196   1.274       .  A
O192       Ni194   1.918   1_455  S
O192        C195   1.274       .  A
Ni193      Ni722   2.368       .  S
Ni194     Ni1777   2.368   1_554  S
C195       O1769   1.275   1_554  A
C195        C448   1.466       .  S
C196       O1770   1.277   1_554  A
C196        C374   1.486       .  S
C197        O718   1.275       .  A
C197        C502   1.468       .  S
C198        O717   1.274       .  A
C198        C304   1.484       .  S
O199       Ni207   1.907       .  S
O199        C209   1.273       .  A
O200       Ni207   1.926       .  S
O200        C210   1.277   1_565  A
O201       Ni207   1.912       .  S
O201        C211   1.272       .  A
O202       Ni207   1.925       .  S
O202        C212   1.275       .  A
O203       Ni208   1.925       .  S
O203        C212   1.276       .  A
O204       Ni208   1.912       .  S
O204        C211   1.278       .  A
O205       Ni208   1.928       .  S
O205        C210   1.278   1_565  A
O206       Ni208   1.924       .  S
O206        C209   1.278       .  A
Ni207      Ni208   2.372       .  S
C209        C268   1.466       .  S
C210        C464   1.486       .  S
C211        C338   1.464       .  S
C212        C410   1.485   1_655  S
O213       Ni221   1.919       .  S
O213       C1807   1.273   1_554  A
O214       Ni221   1.919       .  S
O214       C1808   1.276   1_554  A
O215       Ni221   1.916       .  S
O215        C225   1.279   1_554  A
O216       Ni221   1.907       .  S
O216        C226   1.272   1_554  A
O217       Ni222   1.924       .  S
O217        C754   1.277       .  A
O218       Ni222   1.927       .  S
O218        C753   1.278       .  A
O219       Ni222   1.911       .  S
O219        C224   1.270       .  A
O220       Ni222   1.938       .  S
O220        C223   1.279       .  A
Ni221     Ni1806   2.365   1_554  S
Ni222      Ni749   2.370       .  S
C223        O741   1.276       .  A
C223        C286   1.489       .  S
C224        O742   1.278       .  A
C224        C518   1.468       .  S
C225       O1802   1.277       .  A
C225        C358   1.475       .  S
C226       O1801   1.279       .  A
C226        C430   1.475       .  S
O227       Ni235   1.914       .  S
O227        C237   1.276       .  A
O228       Ni235   1.911       .  S
O228        C238   1.274       .  A
O229       Ni235   1.910       .  S
O229        C239   1.274       .  A
O230       Ni235   1.916       .  S
O230        C240   1.271       .  A
O231       Ni236   1.938       .  S
O231        C240   1.277       .  A
O232       Ni236   1.925       .  S
O232        C239   1.279       .  A
O233       Ni236   1.919       .  S
O233        C238   1.276       .  A
O234       Ni236   1.918       .  S
O234        C237   1.278       .  A
Ni235      Ni236   2.365       .  S
C237        C320   1.472       .  S
C238        C392   1.468       .  S
C239        C248   1.470       .  S
C240        C484   1.488       .  S
C241        C242   1.405       .  A
C241        C246   1.407       .  A
C241        C249   1.487       .  S
C242        C243   1.395       .  A
C242        H251   1.078       .  S
C243        C244   1.406       .  A
C243        H252   1.080       .  S
C244        C245   1.402       .  A
C244        C247   1.485       .  S
C245        C246   1.399       .  A
C245        H253   1.083       .  S
C246        H254   1.083       .  S
C247        H255   1.087       .  S
C247        C248   1.345       .  D
C248        H256   1.085       .  S
C249        H257   1.084       .  S
C249        C250   1.353       .  D
C250        H258   1.083       .  S
C259        C260   1.403       .  A
C259        C264   1.408       .  A
C259        C267   1.485       .  S
C260        C261   1.400       .  A
C260        H269   1.083       .  S
C261        C262   1.409       .  A
C261        H270   1.081       .  S
C262        C263   1.400       .  A
C262        C265   1.481       .  S
C263        C264   1.392       .  A
C263        H271   1.084       .  S
C264        H272   1.081       .  S
C265        H273   1.086       .  S
C265        C266   1.344       .  D
C266        H274   1.085       .  S
C267        H275   1.087       .  S
C267        C268   1.344       .  D
C268        H276   1.081       .  S
C277        C278   1.406       .  A
C277        C282   1.409       .  A
C277        C285   1.503       .  S
C278        C279   1.405       .  A
C278        H815   1.083       .  S
C279        C280   1.412       .  A
C279        H816   1.079       .  S
C280        C281   1.405       .  A
C280        C283   1.502       .  S
C281        C282   1.401       .  A
C281        H289   1.083       .  S
C282        H290   1.075       .  S
C283        H291   1.086       .  S
C283        C284   1.351       .  D
C284        N680   1.446       .  S
C284        H820   1.083       .  S
C285        H821   1.084       .  S
C285        C286   1.350       .  D
C286        H294   1.081       .  S
H287       C1862   1.083       .  S
H288       C1863   1.080       .  S
H292       C1868   1.084       .  S
H293       C1869   1.085       .  S
C295        C296   1.407       .  A
C295        C300   1.410       .  A
C295        C303   1.502   1_455  S
C296        C297   1.405       .  A
C296        H305   1.082       .  S
C297        C298   1.410       .  A
C297        H306   1.081       .  S
C298        C299   1.404       .  A
C298        C301   1.496       .  S
C299        C300   1.400       .  A
C299        H307   1.084       .  S
C300        H308   1.081       .  S
C301        H309   1.086       .  S
C301        C302   1.350       .  D
C302        N683   1.446       .  S
C302        H310   1.085       .  S
C303        H311   1.086       .  S
C303        C304   1.350       .  D
C304        H840   1.083       .  S
H312       C1888   1.082       .  S
C313        C314   1.404       .  A
C313        C318   1.400       .  A
C313        C321   1.475       .  S
C314        C315   1.397       .  A
C314        H323   1.083       .  S
C315        C316   1.408       .  A
C315        H324   1.082       .  S
C316        C317   1.401       .  A
C316        C319   1.481       .  S
C317        C318   1.395       .  A
C317        H325   1.083       .  S
C318        H326   1.083       .  S
C319        H327   1.085       .  S
C319        C320   1.341       .  D
C320        H328   1.080       .  S
C321        H329   1.082       .  S
C321        C322   1.341       .  D
C322        H330   1.087       .  S
C331        C332   1.399       .  A
C331        C336   1.406       .  A
C331        C339   1.470       .  S
C332        C333   1.397       .  A
C332        H341   1.083       .  S
C333        C334   1.409       .  A
C333        H342   1.082       .  S
C334        C335   1.396       .  A
C334        C337   1.471       .  S
C335        C336   1.389       .  A
C335        H343   1.083       .  S
C336        H344   1.083       .  S
C337        H345   1.085       .  S
C337        C338   1.336       .  D
C338        H346   1.086       .  S
C339        H347   1.085       .  S
C339        C340   1.343       .  D
C340        H348   1.088       .  S
C349        C350   1.403       .  A
C349        C882   1.406       .  A
C349        C357   1.480       .  S
C350        C351   1.396       .  A
C350        H359   1.083       .  S
C351        C880   1.404       .  A
C351        H360   1.083       .  S
C352        C353   1.403   1_554  A
C352       C1935   1.404       .  A
C352        C355   1.482       .  S
C353        C354   1.402       .  A
C353        H361   1.083       .  S
C354       C1933   1.407   1_556  A
C354        H362   1.082       .  S
C355        H363   1.086       .  S
C355        C356   1.343       .  D
C356       H1948   1.087       .  S
C357        H365   1.084       .  S
C357        C886   1.343       .  D
C358        H366   1.086       .  S
C358       C1941   1.342   1_556  D
H364        C884   1.087       .  S
C367        C368   1.406       .  A
C367        C372   1.410       .  A
C367        C375   1.502       .  S
C368        C369   1.402       .  A
C368        H377   1.084       .  S
C369        C370   1.411       .  A
C369        H378   1.079       .  S
C370        C371   1.408       .  A
C370        C373   1.506       .  S
C371        C372   1.406       .  A
C371        H379   1.083       .  S
C372        H380   1.080       .  S
C373        H909   1.085       .  S
C373        C902   1.352       .  D
C374       H1966   1.083       .  S
C374       C1957   1.351       .  D
C375        H383   1.086       .  S
C375        C904   1.354       .  D
C376        H384   1.085       .  S
C376       C1959   1.352   1_556  D
H381       C1957   1.086   1_556  S
H382        C902   1.081       .  S
C385        C386   1.400       .  A
C385        C390   1.408       .  A
C385        C393   1.483       .  S
C386        C387   1.392       .  A
C386        H395   1.082       .  S
C387        C388   1.406       .  A
C387        H396   1.080       .  S
C388        C389   1.404       .  A
C388        C391   1.484       .  S
C389        C390   1.401       .  A
C389        H397   1.083       .  S
C390        H398   1.081       .  S
C391        H399   1.087       .  S
C391        C392   1.344       .  D
C392        H400   1.083       .  S
C393        H401   1.086       .  S
C393        C394   1.344       .  D
C394        H402   1.085       .  S
C403        C404   1.404       .  A
C403        C408   1.412       .  A
C403        C411   1.502       .  S
C404        C405   1.400       .  A
C404        H413   1.082       .  S
C405        C406   1.409       .  A
C405        H414   1.077       .  S
C406        C407   1.406       .  A
C406        C409   1.502       .  S
C407        C408   1.406       .  A
C407        H415   1.083       .  S
C408        H416   1.079       .  S
C409        H417   1.086       .  S
C409        C410   1.350       .  D
C410        H418   1.079       .  S
C411        H419   1.086       .  S
C411        C412   1.350       .  D
C412        H420   1.083       .  S
C421        C422   1.402       .  A
C421        C426   1.411       .  A
C421        C429   1.491       .  S
C422        C423   1.397       .  A
C422        H959   1.083       .  S
C423        C424   1.404       .  A
C423        H960   1.084       .  S
C424        C425   1.407       .  A
C424        C427   1.487       .  S
C425        C426   1.400       .  A
C425        H433   1.081       .  S
C426        H434   1.080       .  S
C427        H435   1.084       .  S
C427        C956   1.352       .  D
C428       H2020   1.083       .  S
C428       C2011   1.356   1_554  D
C429        H437   1.088       .  S
C429        C958   1.344       .  D
C430       H2022   1.083   1_556  S
C430       C2013   1.345       .  D
H431       C2006   1.083       .  S
H432       C2007   1.084       .  S
H436        C956   1.085       .  S
H438        C958   1.080       .  S
C439        C444   1.404       .  A
C439        C968   1.399       .  A
C439        C447   1.479       .  S
C440       C2023   1.399       .  A
C440       C2025   1.396       .  A
C440        H449   1.081       .  S
C441        C442   1.406       .  A
C441        C968   1.396       .  A
C441        H978   1.084       .  S
C442        C443   1.407       .  A
C442        C445   1.485       .  S
C443        C444   1.395       .  A
C443        H451   1.078       .  S
C444        H452   1.081       .  S
C445        H453   1.084       .  S
C445        C974   1.350       .  D
C446        H454   1.082       .  S
C446       C2029   1.350   1_554  D
C447        H983   1.087       .  S
C447        C976   1.344   1_545  D
C448       H2040   1.083       .  S
C448       C2031   1.344   1_564  D
H450       C2025   1.084       .  S
H455       C2031   1.087       .  S
H456        C976   1.085       .  S
C457        C458   1.405       .  A
C457        C462   1.410       .  A
C457        C465   1.499       .  S
C458        C459   1.402       .  A
C458        H467   1.083       .  S
C459        C460   1.410       .  A
C459        H468   1.079       .  S
C460        C461   1.407       .  A
C460        C463   1.502       .  S
C461        C462   1.404       .  A
C461        H469   1.083       .  S
C462        H470   1.080       .  S
C463        H471   1.086       .  S
C463        C464   1.351       .  D
C464        H472   1.082       .  S
C465        H473   1.086       .  S
C465        C466   1.351       .  D
C466        H474   1.084       .  S
C475        C476   1.406       .  A
C475        C480   1.410       .  A
C475        C483   1.503       .  S
C476        C477   1.404       .  A
C476        H485   1.082       .  S
C477        C478   1.411       .  A
C477        H486   1.081       .  S
C478        C479   1.404       .  A
C478        C481   1.500       .  S
C479        C480   1.403       .  A
C479        H487   1.083       .  S
C480        H488   1.080       .  S
C481        H489   1.086       .  S
C481        C482   1.351       .  D
C482        H490   1.085       .  S
C483        H491   1.085       .  S
C483        C484   1.350       .  D
C484        H492   1.081       .  S
C493        C494   1.403       .  A
C493       C1026   1.408       .  A
C493        C501   1.485       .  S
C494        C495   1.398       .  A
C494        H503   1.083       .  S
C495       C1024   1.408       .  A
C495        H504   1.081       .  S
C496        C497   1.402       .  A
C496       C2079   1.409   1_554  A
C496        C499   1.484       .  S
C497        C498   1.395       .  A
C497        H505   1.084       .  S
C498       C2077   1.407       .  A
C498        H506   1.080       .  S
C499        H507   1.086       .  S
C499       C2084   1.347   1_554  D
C500        N545   1.438       .  S
C500        H508   1.085       .  S
C500       C1027   1.346       .  D
C501        H509   1.087       .  S
C501        C502   1.345       .  D
C502       H1038   1.081       .  S
H510       C2086   1.081       .  S
C511        C512   1.402       .  A
C511        C516   1.411   1_556  A
C511        C519   1.484       .  S
C512        C513   1.393       .  A
C512       H2105   1.083       .  S
C513        C514   1.405       .  A
C513       H2106   1.080       .  S
C514        C515   1.400   1_556  A
C514        C517   1.480       .  S
C515        C516   1.398       .  A
C515        H523   1.083       .  S
C516        H524   1.079       .  S
C517        H525   1.087   1_556  S
C517       C2102   1.343       .  D
C518        H526   1.085       .  S
C518       C1045   1.338       .  D
C519       H2111   1.086       .  S
C519       C2104   1.344       .  D
C520        N542   1.436       .  S
C520       H1056   1.088       .  S
C520       C1047   1.343       .  D
H521       C1040   1.083       .  S
H522       C1041   1.082       .  S
H527       C1047   1.085       .  S
H528       C2104   1.083   1_554  S
C529        C531   1.554       .  S
C529        C533   1.563       .  S
C529        C532   1.537       .  S
C529        C553   1.671       .  S
C530        C534   1.557       .  S
C530        C536   1.569       .  S
C530        C535   1.531       .  S
C530        C552   1.675       .  S
C531        C539   1.403       .  A
C531       C1062   1.427       .  A
C532        C543   1.391       .  A
C532       C1063   1.410       .  A
C533        C547   1.382       .  A
C533       C1064   1.433       .  A
C534        C537   1.405       .  A
C535        C541   1.387       .  A
C536        C544   1.381       .  A
C537        H550   1.078       .  S
N538       C1065   1.340       .  A
N538        C539   1.340       .  A
N538       N1204   1.418       .  S
C539        H540   1.078       .  S
C541        H551   1.080       .  S
C541        N542   1.339       .  A
C543        H549   1.080       .  S
C543       N1070   1.345       .  A
C544        H546   1.080       .  S
C544        N545   1.355       .  A
C547        H548   1.081       .  S
C547       N1073   1.350       .  A
C552        C554   1.552       .  S
C552        C556   1.538       .  S
C552        C555   1.581       .  S
C553        C557   1.553       .  S
C553        C559   1.546       .  S
C553        C558   1.571       .  S
C554        C562   1.400       .  A
C554        C557   1.420       .  A
C555        C566   1.395       .  A
C555        C558   1.430       .  A
C556        C570   1.389       .  A
C556        C559   1.408       .  A
C557        C560   1.400       .  A
C558        C564   1.386       .  A
C559        C567   1.396       .  A
C560        H573   1.078       .  S
C560        N561   1.342       .  A
N561        C562   1.341       .  A
N561        N699   1.419       .  S
C562        H563   1.078       .  S
C564        H574   1.080       .  S
C564        N565   1.351       .  A
N565        C566   1.358       .  A
N565       C1010   1.446       .  S
C566        H572   1.080       .  S
C567        H569   1.080       .  S
C567        N568   1.349       .  A
N568        C570   1.342       .  A
N568        C994   1.444       .  S
C570        H571   1.081       .  S
C575        C577   1.561   1_545  S
C575        C579   1.577       .  S
C575        C578   1.536       .  S
C575        C599   1.672       .  S
C576        C580   1.547   1_545  S
C576        C582   1.564       .  S
C576        C581   1.531       .  S
C576        C598   1.671       .  S
C577        C585   1.406       .  A
C578        C589   1.393       .  A
C579        C593   1.389       .  A
C580       C1105   1.425   1_565  A
C580        C583   1.400       .  A
C581       C1106   1.409       .  A
C581        C587   1.386       .  A
C582       C1107   1.430       .  A
C582        C590   1.377       .  A
C583        H596   1.078       .  S
C583       N1112   1.339       .  A
N584        C585   1.342       .  A
N584        N630   1.418       .  S
C585        H586   1.078       .  S
C587        H597   1.078       .  S
C587       N1116   1.344       .  A
N588        C589   1.343       .  A
N588        C974   1.439       .  S
C589        H595   1.081       .  S
C590        H592   1.079       .  S
C590       N1119   1.353       .  A
N591        C593   1.357       .  A
N591        C956   1.445       .  S
C593        H594   1.080       .  S
C598        C600   1.545   1_545  S
C598        C602   1.532       .  S
C598        C601   1.570       .  S
C599        C603   1.553   1_545  S
C599        C605   1.536       .  S
C599        C604   1.582       .  S
C600        C608   1.399       .  A
C600        C603   1.422       .  A
C601        C612   1.381   1_545  A
C601        C604   1.431       .  A
C602        C616   1.387       .  A
C602        C605   1.409       .  A
C603        C606   1.400       .  A
C604        C610   1.393   1_545  A
C605        C613   1.391       .  A
C606        H619   1.078       .  S
C606        N607   1.340       .  A
N607        C608   1.338       .  A
N607        N653   1.415       .  S
C608        H609   1.078       .  S
C610        H620   1.080       .  S
C610        N611   1.361       .  A
N611        C612   1.352       .  A
N611        C940   1.446       .  S
C612        H618   1.081       .  S
C613        H615   1.080       .  S
C613        N614   1.346       .  A
N614        C616   1.338       .  A
N614        C922   1.436       .  S
C616        H617   1.081       .  S
C621        C623   1.575       .  S
C621        C625   1.523       .  S
C621        C624   1.552       .  S
C621        C645   1.670       .  S
C622        C626   1.552       .  S
C622        C628   1.552       .  S
C622        C627   1.590       .  S
C622        C644   1.676       .  S
C623        C631   1.393       .  A
C624        C635   1.391       .  A
C625        C639   1.384       .  A
C626       C1151   1.423       .  A
C626        C629   1.389       .  A
C627       C1152   1.431       .  A
C627        C633   1.400       .  A
C628       C1153   1.377       .  A
C628        C636   1.374       .  A
C629        H642   1.078       .  S
C629       N1158   1.351       .  A
N630        C631   1.351       .  A
C631        H632   1.079       .  S
C633        H643   1.080       .  S
C633       N1162   1.351       .  A
N634        C635   1.349       .  A
N634        C904   1.449       .  S
C635        H641   1.080       .  S
C636        H638   1.078       .  S
C636       N1165   1.346       .  A
N637        C639   1.346       .  A
N637        C884   1.433       .  S
C639        H640   1.082       .  S
C644        C646   1.551       .  S
C644        C648   1.573       .  S
C644        C647   1.531       .  S
C645        C649   1.537       .  S
C645        C651   1.580       .  S
C645        C650   1.548       .  S
C646        C654   1.396       .  A
C646        C649   1.420       .  A
C647        C658   1.390       .  A
C647        C650   1.416       .  A
C648        C662   1.391       .  A
C648        C651   1.424       .  A
C649        C652   1.395       .  A
C650        C656   1.395       .  A
C651        C659   1.379       .  A
C652        H665   1.079       .  S
C652        N653   1.342       .  A
N653        C654   1.344       .  A
C654        H655   1.079       .  S
C656        H666   1.079       .  S
C656        N657   1.340       .  A
N657        C658   1.341       .  A
N657        C868   1.440       .  S
C658        H664   1.079       .  S
C659        H661   1.078       .  S
C659        N660   1.344       .  A
N660        C662   1.351       .  A
N660        C850   1.440       .  S
C662        H663   1.080       .  S
C667        C669   1.537       .  S
C667        C671   1.552       .  S
C667        C670   1.572       .  S
C667        C691   1.669       .  S
C668        C672   1.538       .  S
C668        C674   1.562       .  S
C668        C673   1.573       .  S
C668        C690   1.667       .  S
C669        C677   1.390   1_455  A
C669       C1200   1.398       .  A
C670        C681   1.385       .  A
C670       C1201   1.432       .  A
C671        C685   1.402       .  A
C671       C1202   1.425       .  A
C672        C675   1.390   1_455  A
C673        C679   1.392       .  A
C674        C682   1.406       .  A
C675        H688   1.078       .  S
C675        N676   1.349       .  A
C677        H678   1.078       .  S
C677       N1204   1.349       .  A
C679        H689   1.081       .  S
C679        N680   1.358       .  A
C681        H687   1.081       .  S
C681       N1208   1.352       .  A
C682        H684   1.079       .  S
C682        N683   1.339       .  A
C685        H686   1.079       .  S
C685       N1211   1.335       .  A
C690        C692   1.576   1_455  S
C690        C694   1.551       .  S
C690        C693   1.540       .  S
C691        C695   1.567   1_455  S
C691        C697   1.547       .  S
C691        C696   1.525       .  S
C692        C700   1.389       .  A
C692        C695   1.430       .  A
C693        C704   1.394       .  A
C693        C696   1.401       .  A
C694        C708   1.401   1_455  A
C694        C697   1.430       .  A
C695        C698   1.385       .  A
C696        C702   1.378       .  A
C697        C705   1.396   1_455  A
C698        H711   1.080       .  S
C698        N699   1.356       .  A
N699        C700   1.358       .  A
C700        H701   1.080       .  S
C702        H712   1.079       .  S
C702        N703   1.344       .  A
N703        C704   1.348       .  A
N703        C778   1.442       .  S
C704        H710   1.080       .  S
C705        H707   1.079       .  S
C705        N706   1.335       .  A
N706        C708   1.332       .  A
N706        C794   1.436       .  S
C708        H709   1.079       .  S
O713       Ni721   1.917   1_455  S
O713       C1251   1.276       .  A
O714       Ni721   1.936       .  S
O714       C1252   1.277       .  A
O715       Ni721   1.922   1_545  S
O715        C725   1.278       .  A
O716       Ni721   1.945       .  S
O716        C726   1.280       .  A
O717       Ni722   1.912       .  S
O718       Ni722   1.911   1_545  S
O719       Ni722   1.918       .  S
O719        C724   1.273       .  A
O720       Ni722   1.914   1_455  S
O720        C723   1.273       .  A
Ni721     Ni1250   2.369       .  S
C723        C976   1.466       .  S
C724        C902   1.489       .  S
C725       O1246   1.276       .  A
C725       C1030   1.470       .  S
C726       O1245   1.273       .  A
C726        C832   1.486       .  S
O727       Ni735   1.905       .  S
O727        C737   1.273       .  A
O728       Ni735   1.918       .  S
O728        C738   1.275   1_565  A
O729       Ni735   1.924       .  S
O729        C739   1.275       .  A
O730       Ni735   1.936       .  S
O730        C740   1.276       .  A
O731       Ni736   1.922       .  S
O731        C740   1.274       .  A
O732       Ni736   1.911       .  S
O732        C739   1.275       .  A
O733       Ni736   1.936       .  S
O733        C738   1.279   1_565  A
O734       Ni736   1.921       .  S
O734        C737   1.279       .  A
Ni735      Ni736   2.369       .  S
C737        C796   1.465       .  S
C738        C992   1.483       .  S
C739        C866   1.466       .  S
C740        C938   1.487   1_655  S
O741       Ni749   1.922       .  S
O742       Ni749   1.926       .  S
O743       Ni749   1.906       .  S
O743        C753   1.277       .  A
O744       Ni749   1.907       .  S
O744        C754   1.271       .  A
O745       Ni750   1.930       .  S
O745       C1282   1.276       .  A
O746       Ni750   1.923       .  S
O746       C1281   1.277       .  A
O747       Ni750   1.917       .  S
O747        C752   1.273       .  A
O748       Ni750   1.946       .  S
O748        C751   1.278       .  A
Ni750     Ni1277   2.364       .  S
C751       O1269   1.272       .  A
C751        C814   1.489       .  S
C752       O1270   1.275       .  A
C752       C1046   1.467       .  S
C753        C886   1.472       .  S
C754        C958   1.470       .  S
O755       Ni763   1.922       .  S
O755        C765   1.277       .  A
O756       Ni763   1.915       .  S
O756        C766   1.273       .  A
O757       Ni763   1.911       .  S
O757        C767   1.274       .  A
O758       Ni763   1.920       .  S
O758        C768   1.273       .  A
O759       Ni764   1.935       .  S
O759        C768   1.277       .  A
O760       Ni764   1.921       .  S
O760        C767   1.278       .  A
O761       Ni764   1.920       .  S
O761        C766   1.274       .  A
O762       Ni764   1.924       .  S
O762        C765   1.276       .  A
Ni763      Ni764   2.368       .  S
C765        C848   1.477       .  S
C766        C920   1.467       .  S
C767        C776   1.466       .  S
C768       C1012   1.485       .  S
C769        C770   1.407       .  A
C769        C774   1.407       .  A
C769        C777   1.486       .  S
C770        C771   1.396       .  A
C770        H779   1.080       .  S
C771        C772   1.407       .  A
C771        H780   1.082       .  S
C772        C773   1.399       .  A
C772        C775   1.482       .  S
C773        C774   1.397       .  A
C773        H781   1.083       .  S
C774        H782   1.084       .  S
C775        H783   1.087       .  S
C775        C776   1.343       .  D
C776        H784   1.082       .  S
C777        H785   1.084       .  S
C777        C778   1.353       .  D
C778        H786   1.084       .  S
C787        C788   1.400       .  A
C787        C792   1.408       .  A
C787        C795   1.481       .  S
C788        C789   1.396       .  A
C788        H797   1.083       .  S
C789        C790   1.409       .  A
C789        H798   1.081       .  S
C790        C791   1.401       .  A
C790        C793   1.480       .  S
C791        C792   1.394       .  A
C791        H799   1.084       .  S
C792        H800   1.082       .  S
C793        H801   1.086       .  S
C793        C794   1.345       .  D
C794        H802   1.085       .  S
C795        H803   1.087       .  S
C795        C796   1.342       .  D
C796        H804   1.082       .  S
C805        C806   1.406       .  A
C805        C810   1.410       .  A
C805        C813   1.503       .  S
C806        C807   1.406       .  A
C806       H1343   1.083       .  S
C807        C808   1.412       .  A
C807       H1344   1.080       .  S
C808        C809   1.405       .  A
C808        C811   1.504       .  S
C809        C810   1.402       .  A
C809        H817   1.082       .  S
C810        H818   1.079       .  S
C811        H819   1.086       .  S
C811        C812   1.352       .  D
C812       N1208   1.449       .  S
C812       H1348   1.083       .  S
C813       H1349   1.084       .  S
C813        C814   1.350       .  D
C814        H822   1.082       .  S
C823        C824   1.408       .  A
C823        C828   1.411       .  A
C823        C831   1.505   1_455  S
C824        C825   1.406       .  A
C824        H833   1.082       .  S
C825        C826   1.410       .  A
C825        H834   1.081       .  S
C826        C827   1.404       .  A
C826        C829   1.498       .  S
C827        C828   1.401       .  A
C827        H835   1.084       .  S
C828        H836   1.080       .  S
C829        H837   1.086       .  S
C829        C830   1.351       .  D
C830       N1211   1.448       .  S
C830        H838   1.085       .  S
C831        H839   1.086       .  S
C831        C832   1.351       .  D
C832       H1368   1.082       .  S
C841        C842   1.405       .  A
C841        C846   1.402       .  A
C841        C849   1.483       .  S
C842        C843   1.398       .  A
C842        H851   1.082       .  S
C843        C844   1.408       .  A
C843        H852   1.081       .  S
C844        C845   1.404       .  A
C844        C847   1.488       .  S
C845        C846   1.400       .  A
C845        H853   1.083       .  S
C846        H854   1.083       .  S
C847        H855   1.086       .  S
C847        C848   1.346       .  D
C848        H856   1.080       .  S
C849        H857   1.083       .  S
C849        C850   1.345       .  D
C850        H858   1.087       .  S
C859        C860   1.403       .  A
C859        C864   1.408       .  A
C859        C867   1.485       .  S
C860        C861   1.394       .  A
C860        H869   1.084       .  S
C861        C862   1.407       .  A
C861        H870   1.078       .  S
C862        C863   1.403       .  A
C862        C865   1.485       .  S
C863        C864   1.398       .  A
C863        H871   1.083       .  S
C864        H872   1.080       .  S
C865        H873   1.088       .  S
C865        C866   1.345       .  D
C866        H874   1.080       .  S
C867        H875   1.084       .  S
C867        C868   1.348       .  D
C868        H876   1.083       .  S
C877        C878   1.403       .  A
C877       C1410   1.405       .  A
C877        C885   1.482       .  S
C878        C879   1.399       .  A
C878        H887   1.083       .  S
C879       C1408   1.406       .  A
C879        H888   1.083       .  S
C880        C881   1.402       .  A
C880        C883   1.478       .  S
C881        C882   1.400       .  A
C881        H889   1.083       .  S
C882        H890   1.082       .  S
C883        H891   1.086       .  S
C883        C884   1.341       .  D
C885        H893   1.082       .  S
C885       C1414   1.342       .  D
C886        H894   1.086       .  S
H892       C1412   1.086       .  S
C895        C896   1.405       .  A
C895        C900   1.408       .  A
C895        C903   1.500       .  S
C896        C897   1.402       .  A
C896        H905   1.083       .  S
C897        C898   1.407       .  A
C897        H906   1.082       .  S
C898        C899   1.409       .  A
C898        C901   1.502       .  S
C899        C900   1.409       .  A
C899        H907   1.083       .  S
C900        H908   1.082       .  S
C901       H1437   1.087       .  S
C901       C1430   1.353       .  D
C903        H911   1.086       .  S
C903       C1432   1.353       .  D
C904        H912   1.083       .  S
H910       C1430   1.081       .  S
C913        C914   1.400       .  A
C913        C918   1.410       .  A
C913        C921   1.483       .  S
C914        C915   1.394       .  A
C914        H923   1.084       .  S
C915        C916   1.409       .  A
C915        H924   1.081       .  S
C916        C917   1.402       .  A
C916        C919   1.485       .  S
C917        C918   1.398       .  A
C917        H925   1.084       .  S
C918        H926   1.081       .  S
C919        H927   1.087       .  S
C919        C920   1.344       .  D
C920        H928   1.080       .  S
C921        H929   1.086       .  S
C921        C922   1.343       .  D
C922        H930   1.085       .  S
C931        C932   1.404       .  A
C931        C936   1.412       .  A
C931        C939   1.504       .  S
C932        C933   1.401       .  A
C932        H941   1.080   1_565  S
C933        C934   1.409       .  A
C933        H942   1.078       .  S
C934        C935   1.407       .  A
C934        C937   1.504       .  S
C935        C936   1.407       .  A
C935        H943   1.083       .  S
C936        H944   1.079       .  S
C937        H945   1.086       .  S
C937        C938   1.350       .  D
C938        H946   1.080       .  S
C939        H947   1.087       .  S
C939        C940   1.351       .  D
C940        H948   1.083       .  S
C949        C950   1.404       .  A
C949        C954   1.410       .  A
C949        C957   1.494       .  S
C950        C951   1.402       .  A
C950       H1487   1.083       .  S
C951        C952   1.407       .  A
C951       H1488   1.083       .  S
C952        C953   1.405       .  A
C952        C955   1.490       .  S
C953        C954   1.397       .  A
C953        H961   1.080       .  S
C954        H962   1.079       .  S
C955        H963   1.084       .  S
C955       C1484   1.355       .  D
C957        H965   1.087       .  S
C957       C1486   1.346       .  D
H964       C1484   1.084       .  S
H966       C1486   1.083       .  S
C967       C1496   1.398       .  A
C967        C972   1.406       .  A
C967        C975   1.480       .  S
C968        H977   1.081       .  S
C969       C1496   1.395       .  A
C969        C970   1.406       .  A
C969       H1506   1.084       .  S
C970        C971   1.408       .  A
C970        C973   1.486       .  S
C971        C972   1.396       .  A
C971        H979   1.079       .  S
C972        H980   1.081       .  S
C973        H981   1.083       .  S
C973       C1502   1.348       .  D
C974        H982   1.082       .  S
C975       H1511   1.087       .  S
C975       C1504   1.343   1_545  D
H984       C1504   1.084       .  S
C985        C986   1.403       .  A
C985        C990   1.409       .  A
C985        C993   1.495       .  S
C986        C987   1.401       .  A
C986        H995   1.084       .  S
C987        C988   1.411       .  A
C987        H996   1.080       .  S
C988        C989   1.406       .  A
C988        C991   1.501       .  S
C989        C990   1.403       .  A
C989        H997   1.083       .  S
C990        H998   1.081       .  S
C991        H999   1.087       .  S
C991        C992   1.349       .  D
C992       H1000   1.082       .  S
C993       H1001   1.086       .  S
C993        C994   1.349       .  D
C994       H1002   1.085       .  S
C1003      C1004   1.407       .  A
C1003      C1008   1.408       .  A
C1003      C1011   1.500       .  S
C1004      C1005   1.406       .  A
C1004      H1013   1.083       .  S
C1005      C1006   1.409       .  A
C1005      H1014   1.081       .  S
C1006      C1007   1.406       .  A
C1006      C1009   1.500       .  S
C1007      C1008   1.404       .  A
C1007      H1015   1.083       .  S
C1008      H1016   1.082       .  S
C1009      H1017   1.087       .  S
C1009      C1010   1.351       .  D
C1010      H1018   1.085       .  S
C1011      H1019   1.086       .  S
C1011      C1012   1.350       .  D
C1012      H1020   1.083       .  S
C1021      C1022   1.403       .  A
C1021      C1554   1.408       .  A
C1021      C1029   1.487       .  S
C1022      C1023   1.399       .  A
C1022      H1031   1.083       .  S
C1023      C1552   1.409       .  A
C1023      H1032   1.081       .  S
C1024      C1025   1.401       .  A
C1024      C1027   1.483       .  S
C1025      C1026   1.394       .  A
C1025      H1033   1.084       .  S
C1026      H1034   1.080       .  S
C1027      H1035   1.085       .  S
C1028      N1073   1.439       .  S
C1028      H1036   1.085       .  S
C1028      C1555   1.346       .  D
C1029      H1037   1.087       .  S
C1029      C1030   1.346       .  D
C1030      H1566   1.081       .  S
C1039      C1040   1.400       .  A
C1039      C1044   1.405       .  A
C1039      C1047   1.475       .  S
C1040      C1041   1.400       .  A
C1041      C1042   1.411       .  A
C1042      C1043   1.397       .  A
C1042      C1045   1.481       .  S
C1043      C1044   1.392       .  A
C1043      H1051   1.083       .  S
C1044      H1052   1.083       .  S
C1045      H1053   1.086       .  S
C1046      H1054   1.082       .  S
C1046      C1573   1.345       .  D
C1048      N1070   1.437       .  S
C1048      H1584   1.083       .  S
C1048      C1575   1.344       .  D
H1049      C1568   1.083       .  S
H1050      C1569   1.080       .  S
H1055      C1575   1.086       .  S
C1057      C1059   1.552       .  S
C1057      C1061   1.563       .  S
C1057      C1060   1.531       .  S
C1057      C1081   1.669       .  S
C1058      C1062   1.557       .  S
C1058      C1064   1.567       .  S
C1058      C1063   1.528       .  S
C1058      C1080   1.670       .  S
C1059      C1067   1.402       .  A
C1059      C1590   1.427       .  A
C1060      C1071   1.387       .  A
C1060      C1591   1.409       .  A
C1061      C1075   1.381       .  A
C1061      C1592   1.434       .  A
C1062      C1065   1.405       .  A
C1063      C1069   1.388       .  A
C1064      C1072   1.381       .  A
C1065      H1078   1.078       .  S
N1066      C1593   1.342       .  A
N1066      C1067   1.339       .  A
N1066      N1732   1.418       .  S
C1067      H1068   1.078       .  S
C1069      H1079   1.080       .  S
C1069      N1070   1.338       .  A
C1071      H1077   1.080       .  S
C1071      N1598   1.342       .  A
C1072      H1074   1.080       .  S
C1072      N1073   1.355       .  A
C1075      H1076   1.081       .  S
C1075      N1601   1.349       .  A
C1080      C1082   1.549       .  S
C1080      C1084   1.542       .  S
C1080      C1083   1.582       .  S
C1081      C1085   1.552       .  S
C1081      C1087   1.545       .  S
C1081      C1086   1.572       .  S
C1082      C1090   1.400       .  A
C1082      C1085   1.420       .  A
C1083      C1094   1.397       .  A
C1083      C1086   1.428       .  A
C1084      C1098   1.393       .  A
C1084      C1087   1.405       .  A
C1085      C1088   1.401       .  A
C1086      C1092   1.386       .  A
C1087      C1095   1.396       .  A
C1088      H1101   1.078       .  S
C1088      N1089   1.342       .  A
N1089      C1090   1.339       .  A
N1089      N1227   1.418       .  S
C1090      H1091   1.078       .  S
C1092      H1102   1.081       .  S
C1092      N1093   1.353       .  A
N1093      C1094   1.362       .  A
N1093      C1538   1.453       .  S
C1094      H1100   1.080       .  S
C1095      H1097   1.080       .  S
C1095      N1096   1.350       .  A
N1096      C1098   1.346       .  A
N1096      C1522   1.448       .  S
C1098      H1099   1.081       .  S
C1103      C1105   1.559       .  S
C1103      C1107   1.577       .  S
C1103      C1106   1.535       .  S
C1103      C1127   1.674       .  S
C1104      C1108   1.543       .  S
C1104      C1110   1.563       .  S
C1104      C1109   1.528       .  S
C1104      C1126   1.673       .  S
C1105      C1113   1.405   1_545  A
C1106      C1117   1.392       .  A
C1107      C1121   1.390       .  A
C1108      C1633   1.425       .  A
C1108      C1111   1.396   1_545  A
C1109      C1634   1.412       .  A
C1109      C1115   1.382       .  A
C1110      C1635   1.429       .  A
C1110      C1118   1.377       .  A
C1111      H1124   1.078       .  S
C1111      N1640   1.337       .  A
N1112      C1113   1.343       .  A
N1112      N1158   1.419       .  S
C1113      H1114   1.079       .  S
C1115      H1125   1.079       .  S
C1115      N1644   1.340       .  A
N1116      C1117   1.342       .  A
N1116      C1502   1.440       .  S
C1117      H1123   1.081       .  S
C1118      H1120   1.078       .  S
C1118      N1647   1.354       .  A
N1119      C1121   1.359       .  A
N1119      C1484   1.446       .  S
C1121      H1122   1.081       .  S
C1126      C1128   1.547   1_545  S
C1126      C1130   1.535       .  S
C1126      C1129   1.566       .  S
C1127      C1131   1.551   1_545  S
C1127      C1133   1.537       .  S
C1127      C1132   1.579       .  S
C1128      C1136   1.397       .  A
C1128      C1131   1.426       .  A
C1129      C1140   1.381   1_545  A
C1129      C1132   1.429       .  A
C1130      C1144   1.387       .  A
C1130      C1133   1.411       .  A
C1131      C1134   1.397       .  A
C1132      C1138   1.391   1_545  A
C1133      C1141   1.389       .  A
C1134      H1147   1.078       .  S
C1134      N1135   1.338       .  A
N1135      C1136   1.337       .  A
N1135      N1181   1.412       .  S
C1136      H1137   1.078       .  S
C1138      H1148   1.080       .  S
C1138      N1139   1.358       .  A
N1139      C1140   1.350       .  A
N1139      C1468   1.442       .  S
C1140      H1146   1.081       .  S
C1141      H1143   1.080       .  S
C1141      N1142   1.346       .  A
N1142      C1144   1.340       .  A
N1142      C1450   1.437       .  S
C1144      H1145   1.080       .  S
C1149      C1151   1.574       .  S
C1149      C1153   1.526       .  S
C1149      C1152   1.554       .  S
C1149      C1173   1.668       .  S
C1150      C1154   1.556       .  S
C1150      C1156   1.554       .  S
C1150      C1155   1.586       .  S
C1150      C1172   1.679       .  S
C1151      C1159   1.393       .  A
C1152      C1163   1.391       .  A
C1153      C1167   1.388       .  A
C1154      C1679   1.423       .  A
C1154      C1157   1.385       .  A
C1155      C1680   1.433       .  A
C1155      C1161   1.399       .  A
C1156      C1681   1.379       .  A
C1156      C1164   1.367       .  A
C1157      H1170   1.078       .  S
C1157      N1686   1.354       .  A
N1158      C1159   1.351       .  A
C1159      H1160   1.079       .  S
C1161      H1171   1.080       .  S
C1161      N1690   1.348       .  A
N1162      C1163   1.350       .  A
N1162      C1432   1.450       .  S
C1163      H1169   1.081       .  S
C1164      H1166   1.079       .  S
C1164      N1693   1.341       .  A
N1165      C1167   1.348       .  A
N1165      C1412   1.438       .  S
C1167      H1168   1.082       .  S
C1172      C1174   1.547       .  S
C1172      C1176   1.574       .  S
C1172      C1175   1.534       .  S
C1173      C1177   1.537       .  S
C1173      C1179   1.574       .  S
C1173      C1178   1.544       .  S
C1174      C1182   1.393       .  A
C1174      C1177   1.423       .  A
C1175      C1186   1.391       .  A
C1175      C1178   1.417       .  A
C1176      C1190   1.390       .  A
C1176      C1179   1.422       .  A
C1177      C1180   1.394       .  A
C1178      C1184   1.391       .  A
C1179      C1187   1.376       .  A
C1180      H1193   1.079       .  S
C1180      N1181   1.341       .  A
N1181      C1182   1.341       .  A
C1182      H1183   1.079       .  S
C1184      H1194   1.079       .  S
C1184      N1185   1.338       .  A
N1185      C1186   1.341       .  A
N1185      C1396   1.437       .  S
C1186      H1192   1.079       .  S
C1187      H1189   1.079       .  S
C1187      N1188   1.342       .  A
N1188      C1190   1.350       .  A
N1188      C1378   1.435       .  S
C1190      H1191   1.080       .  S
C1195      C1197   1.540       .  S
C1195      C1199   1.551       .  S
C1195      C1198   1.571       .  S
C1195      C1219   1.670       .  S
C1196      C1200   1.540       .  S
C1196      C1202   1.565       .  S
C1196      C1201   1.575       .  S
C1196      C1218   1.670       .  S
C1197      C1205   1.390   1_455  A
C1197      C1728   1.398       .  A
C1198      C1209   1.385       .  A
C1198      C1729   1.432       .  A
C1199      C1213   1.402       .  A
C1199      C1730   1.426       .  A
C1200      C1203   1.391   1_455  A
C1201      C1207   1.394       .  A
C1202      C1210   1.408       .  A
C1203      H1216   1.079       .  S
C1203      N1204   1.349       .  A
C1205      H1206   1.078       .  S
C1205      N1732   1.350       .  A
C1207      H1217   1.081       .  S
C1207      N1208   1.360       .  A
C1209      H1215   1.081       .  S
C1209      N1736   1.352       .  A
C1210      H1212   1.079       .  S
C1210      N1211   1.341       .  A
C1213      H1214   1.079       .  S
C1213      N1739   1.334       .  A
C1218      C1220   1.578   1_455  S
C1218      C1222   1.549       .  S
C1218      C1221   1.541       .  S
C1219      C1223   1.563   1_455  S
C1219      C1225   1.549       .  S
C1219      C1224   1.525       .  S
C1220      C1228   1.389       .  A
C1220      C1223   1.429       .  A
C1221      C1232   1.394       .  A
C1221      C1224   1.402       .  A
C1222      C1236   1.400   1_455  A
C1222      C1225   1.432       .  A
C1223      C1226   1.383       .  A
C1224      C1230   1.377       .  A
C1225      C1233   1.396   1_455  A
C1226      H1239   1.080       .  S
C1226      N1227   1.355       .  A
N1227      C1228   1.358       .  A
C1228      H1229   1.080       .  S
C1230      H1240   1.078       .  S
C1230      N1231   1.344       .  A
N1231      C1232   1.349       .  A
N1231      C1306   1.443       .  S
C1232      H1238   1.080       .  S
C1233      H1235   1.079       .  S
C1233      N1234   1.335       .  A
N1234      C1236   1.330       .  A
N1234      C1322   1.434       .  S
C1236      H1237   1.079       .  S
O1241     Ni1249   1.913   1_455  S
O1241      C1779   1.275       .  A
O1242     Ni1249   1.938       .  S
O1242      C1780   1.277       .  A
O1243     Ni1249   1.920   1_545  S
O1243      C1253   1.276       .  A
O1244     Ni1249   1.942       .  S
O1244      C1254   1.281       .  A
O1245     Ni1250   1.915       .  S
O1246     Ni1250   1.912   1_545  S
O1247     Ni1250   1.924       .  S
O1247      C1252   1.275       .  A
O1248     Ni1250   1.917   1_455  S
O1248      C1251   1.273       .  A
Ni1249    Ni1778   2.369       .  S
C1251      C1504   1.466       .  S
C1252      C1430   1.488       .  S
C1253      O1774   1.274       .  A
C1253      C1558   1.466       .  S
C1254      O1773   1.273       .  A
C1254      C1360   1.483       .  S
O1255     Ni1263   1.906       .  S
O1255      C1265   1.272       .  A
O1256     Ni1263   1.927       .  S
O1256      C1266   1.277   1_565  A
O1257     Ni1263   1.915       .  S
O1257      C1267   1.272       .  A
O1258     Ni1263   1.923       .  S
O1258      C1268   1.275       .  A
O1259     Ni1264   1.926       .  S
O1259      C1268   1.276       .  A
O1260     Ni1264   1.917       .  S
O1260      C1267   1.278       .  A
O1261     Ni1264   1.929       .  S
O1261      C1266   1.278   1_565  A
O1262     Ni1264   1.919       .  S
O1262      C1265   1.277       .  A
Ni1263    Ni1264   2.372       .  S
C1265      C1324   1.461       .  S
C1266      C1520   1.488       .  S
C1267      C1394   1.468       .  S
C1268      C1466   1.485   1_655  S
O1269     Ni1277   1.918       .  S
O1270     Ni1277   1.921       .  S
O1271     Ni1277   1.919       .  S
O1271      C1281   1.279       .  A
O1272     Ni1277   1.907       .  S
O1272      C1282   1.270       .  A
O1273     Ni1278   1.924       .  S
O1273      C1810   1.276       .  A
O1274     Ni1278   1.926       .  S
O1274      C1809   1.277       .  A
O1275     Ni1278   1.910       .  S
O1275      C1280   1.269       .  A
O1276     Ni1278   1.936       .  S
O1276      C1279   1.277       .  A
Ni1278    Ni1805   2.370       .  S
C1279      O1797   1.275       .  A
C1279      C1342   1.489       .  S
C1280      O1798   1.277       .  A
C1280      C1574   1.463       .  S
C1281      C1414   1.475       .  S
C1282      C1486   1.472       .  S
O1283     Ni1291   1.917       .  S
O1283      C1293   1.276       .  A
O1284     Ni1291   1.912       .  S
O1284      C1294   1.272       .  A
O1285     Ni1291   1.905       .  S
O1285      C1295   1.273       .  A
O1286     Ni1291   1.916       .  S
O1286      C1296   1.270       .  A
O1287     Ni1292   1.948       .  S
O1287      C1296   1.278       .  A
O1288     Ni1292   1.932       .  S
O1288      C1295   1.280       .  A
O1289     Ni1292   1.921       .  S
O1289      C1294   1.275       .  A
O1290     Ni1292   1.918       .  S
O1290      C1293   1.275       .  A
Ni1291    Ni1292   2.364       .  S
C1293      C1376   1.472       .  S
C1294      C1448   1.470       .  S
C1295      C1304   1.469       .  S
C1296      C1540   1.494       .  S
C1297      C1298   1.406       .  A
C1297      C1302   1.408       .  A
C1297      C1305   1.488       .  S
C1298      C1299   1.397       .  A
C1298      H1307   1.079       .  S
C1299      C1300   1.409       .  A
C1299      H1308   1.082       .  S
C1300      C1301   1.399       .  A
C1300      C1303   1.486       .  S
C1301      C1302   1.398       .  A
C1301      H1309   1.083       .  S
C1302      H1310   1.084       .  S
C1303      H1311   1.087       .  S
C1303      C1304   1.342       .  D
C1304      H1312   1.085       .  S
C1305      H1313   1.083       .  S
C1305      C1306   1.354       .  D
C1306      H1314   1.083       .  S
C1315      C1316   1.400       .  A
C1315      C1320   1.407       .  A
C1315      C1323   1.478       .  S
C1316      C1317   1.397       .  A
C1316      H1325   1.084       .  S
C1317      C1318   1.410       .  A
C1317      H1326   1.080       .  S
C1318      C1319   1.400       .  A
C1318      C1321   1.479       .  S
C1319      C1320   1.391       .  A
C1319      H1327   1.084       .  S
C1320      H1328   1.082       .  S
C1321      H1329   1.086       .  S
C1321      C1322   1.343       .  D
C1322      H1330   1.084       .  S
C1323      H1331   1.087       .  S
C1323      C1324   1.341       .  D
C1324      H1332   1.082       .  S
C1333      C1334   1.407       .  A
C1333      C1338   1.410       .  A
C1333      C1341   1.506       .  S
C1334      C1335   1.406       .  A
C1334      H1871   1.083       .  S
C1335      C1336   1.412       .  A
C1335      H1872   1.079       .  S
C1336      C1337   1.404       .  A
C1336      C1339   1.503       .  S
C1337      C1338   1.401       .  A
C1337      H1345   1.083       .  S
C1338      H1346   1.075       .  S
C1339      H1347   1.086       .  S
C1339      C1340   1.352       .  D
C1340      N1736   1.449       .  S
C1340      H1876   1.083       .  S
C1341      H1877   1.085       .  S
C1341      C1342   1.352       .  D
C1342      H1350   1.080       .  S
C1351      C1352   1.408       .  A
C1351      C1356   1.411   1_455  A
C1351      C1359   1.506   1_455  S
C1352      C1353   1.406       .  A
C1352      H1361   1.083       .  S
C1353      C1354   1.411       .  A
C1353      H1362   1.080       .  S
C1354      C1355   1.403       .  A
C1354      C1357   1.499       .  S
C1355      C1356   1.399   1_455  A
C1355      H1363   1.083       .  S
C1356      H1364   1.078       .  S
C1357      H1365   1.087       .  S
C1357      C1358   1.350       .  D
C1358      N1739   1.446       .  S
C1358      H1366   1.084       .  S
C1359      H1367   1.086       .  S
C1359      C1360   1.351       .  D
C1360      H1896   1.081       .  S
C1369      C1370   1.404       .  A
C1369      C1374   1.403       .  A
C1369      C1377   1.479       .  S
C1370      C1371   1.394       .  A
C1370      H1379   1.082       .  S
C1371      C1372   1.406       .  A
C1371      H1380   1.082       .  S
C1372      C1373   1.403       .  A
C1372      C1375   1.482       .  S
C1373      C1374   1.399       .  A
C1373      H1381   1.083       .  S
C1374      H1382   1.083       .  S
C1375      H1383   1.086       .  S
C1375      C1376   1.344       .  D
C1376      H1384   1.081       .  S
C1377      H1385   1.083       .  S
C1377      C1378   1.343       .  D
C1378      H1386   1.086       .  S
C1387      C1388   1.401       .  A
C1387      C1392   1.405       .  A
C1387      C1395   1.475       .  S
C1388      C1389   1.399       .  A
C1388      H1397   1.083       .  S
C1389      C1390   1.410       .  A
C1389      H1398   1.082       .  S
C1390      C1391   1.397       .  A
C1390      C1393   1.478       .  S
C1391      C1392   1.391       .  A
C1391      H1399   1.082       .  S
C1392      H1400   1.083       .  S
C1393      H1401   1.083       .  S
C1393      C1394   1.337       .  D
C1394      H1402   1.085       .  S
C1395      H1403   1.084       .  S
C1395      C1396   1.345       .  D
C1396      H1404   1.088       .  S
C1405      C1406   1.402       .  A
C1405      C1938   1.408       .  A
C1405      C1413   1.480       .  S
C1406      C1407   1.393       .  A
C1406      H1415   1.084       .  S
C1407      C1936   1.402       .  A
C1407      H1416   1.083       .  S
C1408      C1409   1.404       .  A
C1408      C1411   1.485       .  S
C1409      C1410   1.401       .  A
C1409      H1417   1.083       .  S
C1410      H1418   1.083       .  S
C1411      H1419   1.086       .  S
C1411      C1412   1.344       .  D
C1413      H1421   1.083       .  S
C1413      C1942   1.342       .  D
C1414      H1422   1.086       .  S
H1420      C1940   1.087       .  S
C1423      C1424   1.405       .  A
C1423      C1428   1.410       .  A
C1423      C1431   1.501       .  S
C1424      C1425   1.402       .  A
C1424      H1433   1.083       .  S
C1425      C1426   1.410       .  A
C1425      H1434   1.079       .  S
C1426      C1427   1.408       .  A
C1426      C1429   1.506       .  S
C1427      C1428   1.406       .  A
C1427      H1435   1.082       .  S
C1428      H1436   1.080       .  S
C1429      H1965   1.086       .  S
C1429      C1958   1.352       .  D
C1431      H1439   1.086       .  S
C1431      C1960   1.353       .  D
C1432      H1440   1.085       .  S
H1438      C1958   1.081       .  S
C1441      C1442   1.402       .  A
C1441      C1446   1.409       .  A
C1441      C1449   1.486       .  S
C1442      C1443   1.396       .  A
C1442      H1451   1.084       .  S
C1443      C1444   1.408       .  A
C1443      H1452   1.080       .  S
C1444      C1445   1.402       .  A
C1444      C1447   1.487       .  S
C1445      C1446   1.398       .  A
C1445      H1453   1.083       .  S
C1446      H1454   1.080       .  S
C1447      H1455   1.087       .  S
C1447      C1448   1.345       .  D
C1448      H1456   1.083       .  S
C1449      H1457   1.086       .  S
C1449      C1450   1.345       .  D
C1450      H1458   1.084       .  S
C1459      C1460   1.404       .  A
C1459      C1464   1.411       .  A
C1459      C1467   1.499       .  S
C1460      C1461   1.399       .  A
C1460      H1469   1.082       .  S
C1461      C1462   1.408       .  A
C1461      H1470   1.077       .  S
C1462      C1463   1.406       .  A
C1462      C1465   1.500       .  S
C1463      C1464   1.405       .  A
C1463      H1471   1.083       .  S
C1464      H1472   1.079       .  S
C1465      H1473   1.086       .  S
C1465      C1466   1.350       .  D
C1466      H1474   1.080       .  S
C1467      H1475   1.087       .  S
C1467      C1468   1.349       .  D
C1468      H1476   1.082       .  S
C1477      C1478   1.405       .  A
C1477      C1482   1.410       .  A
C1477      C1485   1.494       .  S
C1478      C1479   1.400       .  A
C1478      H2015   1.083       .  S
C1479      C1480   1.404       .  A
C1479      H2016   1.083       .  S
C1480      C1481   1.405       .  A
C1480      C1483   1.487       .  S
C1481      C1482   1.399       .  A
C1481      H1489   1.081       .  S
C1482      H1490   1.078       .  S
C1483      H1491   1.083       .  S
C1483      C2012   1.352       .  D
C1485      H1493   1.087       .  S
C1485      C2014   1.346       .  D
H1492      C2012   1.086       .  S
H1494      C2014   1.080       .  S
C1495      C2024   1.401       .  A
C1495      C1500   1.404       .  A
C1495      C1503   1.478       .  S
C1496      H1505   1.081       .  S
C1497      C2024   1.396       .  A
C1497      C1498   1.405       .  A
C1497      H2034   1.084       .  S
C1498      C1499   1.406       .  A
C1498      C1501   1.480       .  S
C1499      C1500   1.391       .  A
C1499      H1507   1.079       .  S
C1500      H1508   1.080       .  S
C1501      H1509   1.085       .  S
C1501      C2030   1.348       .  D
C1502      H1510   1.083       .  S
C1503      H2039   1.087       .  S
C1503      C2032   1.344   1_545  D
H1512      C2032   1.084       .  S
C1513      C1514   1.406       .  A
C1513      C1518   1.409       .  A
C1513      C1521   1.501       .  S
C1514      C1515   1.403       .  A
C1514      H1523   1.084       .  S
C1515      C1516   1.410       .  A
C1515      H1524   1.079       .  S
C1516      C1517   1.408       .  A
C1516      C1519   1.504       .  S
C1517      C1518   1.404       .  A
C1517      H1525   1.083       .  S
C1518      H1526   1.080       .  S
C1519      H1527   1.086       .  S
C1519      C1520   1.352       .  D
C1520      H1528   1.082       .  S
C1521      H1529   1.086       .  S
C1521      C1522   1.353       .  D
C1522      H1530   1.084       .  S
C1531      C1532   1.408       .  A
C1531      C1536   1.411       .  A
C1531      C1539   1.511       .  S
C1532      C1533   1.408       .  A
C1532      H1541   1.083       .  S
C1533      C1534   1.412       .  A
C1533      H1542   1.080       .  S
C1534      C1535   1.406       .  A
C1534      C1537   1.509       .  S
C1535      C1536   1.405       .  A
C1535      H1543   1.083       .  S
C1536      H1544   1.079       .  S
C1537      H1545   1.086       .  S
C1537      C1538   1.354       .  D
C1538      H1546   1.083       .  S
C1539      H1547   1.085       .  S
C1539      C1540   1.353       .  D
C1540      H1548   1.080       .  S
C1549      C1550   1.403       .  A
C1549      C2082   1.408       .  A
C1549      C1557   1.485       .  S
C1550      C1551   1.398       .  A
C1550      H1559   1.083       .  S
C1551      C2080   1.409       .  A
C1551      H1560   1.080       .  S
C1552      C1553   1.402       .  A
C1552      C1555   1.485       .  S
C1553      C1554   1.395       .  A
C1553      H1561   1.084       .  S
C1554      H1562   1.080       .  S
C1555      H1563   1.085       .  S
C1556      N1601   1.438       .  S
C1556      H1564   1.084       .  S
C1556      C2083   1.345       .  D
C1557      H1565   1.087       .  S
C1557      C1558   1.345       .  D
C1558      H2094   1.080       .  S
C1567      C1568   1.401       .  A
C1567      C1572   1.411       .  A
C1567      C1575   1.486       .  S
C1568      C1569   1.393       .  A
C1569      C1570   1.406       .  A
C1570      C1571   1.402       .  A
C1570      C1573   1.485       .  S
C1571      C1572   1.400       .  A
C1571      H1579   1.083       .  S
C1572      H1580   1.080       .  S
C1573      H1581   1.087       .  S
C1574      H1582   1.085       .  S
C1574      C2101   1.336       .  D
C1576      N1598   1.434       .  S
C1576      H2112   1.088       .  S
C1576      C2103   1.343       .  D
H1577      C2096   1.083       .  S
H1578      C2097   1.081       .  S
H1583      C2103   1.085       .  S
C1585      C1587   1.554       .  S
C1585      C1589   1.565       .  S
C1585      C1588   1.536       .  S
C1585      C1609   1.673       .  S
C1586      C1590   1.559       .  S
C1586      C1592   1.565       .  S
C1586      C1591   1.530       .  S
C1586      C1608   1.674       .  S
C1587      C1595   1.403       .  A
C1588      C1599   1.391       .  A
C1589      C1603   1.381       .  A
C1590      C1593   1.406       .  A
C1591      C1597   1.388       .  A
C1592      C1600   1.379       .  A
C1593      H1606   1.078       .  S
N1594      C1595   1.340       .  A
C1595      H1596   1.079       .  S
C1597      H1607   1.080       .  S
C1597      N1598   1.339       .  A
C1599      H1605   1.081       .  S
C1600      H1602   1.080       .  S
C1600      N1601   1.355       .  A
C1603      H1604   1.080       .  S
C1608      C1610   1.548       .  S
C1608      C1612   1.540       .  S
C1608      C1611   1.580       .  S
C1609      C1613   1.555       .  S
C1609      C1615   1.547       .  S
C1609      C1614   1.571       .  S
C1610      C1618   1.398       .  A
C1610      C1613   1.423       .  A
C1611      C1622   1.393       .  A
C1611      C1614   1.429       .  A
C1612      C1626   1.390       .  A
C1612      C1615   1.409       .  A
C1613      C1616   1.401       .  A
C1614      C1620   1.387       .  A
C1615      C1623   1.397       .  A
C1616      H1629   1.077       .  S
C1616      N1617   1.342       .  A
N1617      C1618   1.338       .  A
N1617      N1755   1.418       .  S
C1618      H1619   1.078       .  S
C1620      H1630   1.080       .  S
C1620      N1621   1.351       .  A
N1621      C1622   1.357       .  A
N1621      C2066   1.446       .  S
C1622      H1628   1.080       .  S
C1623      H1625   1.080       .  S
C1623      N1624   1.351       .  A
N1624      C1626   1.344       .  A
N1624      C2050   1.446       .  S
C1626      H1627   1.081       .  S
C1631      C1633   1.562       .  S
C1631      C1635   1.578       .  S
C1631      C1634   1.535       .  S
C1631      C1655   1.674       .  S
C1632      C1636   1.543   1_545  S
C1632      C1638   1.566       .  S
C1632      C1637   1.531       .  S
C1632      C1654   1.670       .  S
C1633      C1641   1.406   1_545  A
C1634      C1645   1.392       .  A
C1635      C1649   1.388       .  A
C1636      C1639   1.398       .  A
C1637      C1643   1.385       .  A
C1638      C1646   1.379       .  A
C1639      H1652   1.078       .  S
N1640      C1641   1.343       .  A
N1640      N1686   1.418       .  S
C1641      H1642   1.078       .  S
C1643      H1653   1.078       .  S
N1644      C1645   1.343       .  A
N1644      C2030   1.436       .  S
C1645      H1651   1.081       .  S
C1646      H1648   1.079       .  S
N1647      C1649   1.357       .  A
N1647      C2012   1.446       .  S
C1649      H1650   1.080       .  S
C1654      C1656   1.547   1_545  S
C1654      C1658   1.531       .  S
C1654      C1657   1.568       .  S
C1655      C1659   1.553   1_545  S
C1655      C1661   1.538       .  S
C1655      C1660   1.584       .  S
C1656      C1664   1.400       .  A
C1656      C1659   1.422       .  A
C1657      C1668   1.380   1_545  A
C1657      C1660   1.431       .  A
C1658      C1672   1.386       .  A
C1658      C1661   1.409       .  A
C1659      C1662   1.400       .  A
C1660      C1666   1.394   1_545  A
C1661      C1669   1.392       .  A
C1662      H1675   1.079       .  S
C1662      N1663   1.340       .  A
N1663      C1664   1.339       .  A
N1663      N1709   1.416       .  S
C1664      H1665   1.078       .  S
C1666      H1676   1.080       .  S
C1666      N1667   1.362       .  A
N1667      C1668   1.351       .  A
N1667      C1996   1.447       .  S
C1668      H1674   1.081       .  S
C1669      H1671   1.080       .  S
C1669      N1670   1.347       .  A
N1670      C1672   1.337       .  A
N1670      C1978   1.436       .  S
C1672      H1673   1.080       .  S
C1677      C1679   1.574       .  S
C1677      C1681   1.517       .  S
C1677      C1680   1.554       .  S
C1677      C1701   1.671       .  S
C1678      C1682   1.554       .  S
C1678      C1684   1.554       .  S
C1678      C1683   1.587       .  S
C1678      C1700   1.679       .  S
C1679      C1687   1.390       .  A
C1680      C1691   1.392       .  A
C1681      C1695   1.386       .  A
C1682      C1685   1.388       .  A
C1683      C1689   1.399       .  A
C1684      C1692   1.372       .  A
C1685      H1698   1.078       .  S
N1686      C1687   1.353       .  A
C1687      H1688   1.079       .  S
C1689      H1699   1.080       .  S
N1690      C1691   1.349       .  A
N1690      C1960   1.449       .  S
C1691      H1697   1.080       .  S
C1692      H1694   1.079       .  S
N1693      C1695   1.343       .  A
N1693      C1940   1.428       .  S
C1695      H1696   1.082       .  S
C1700      C1702   1.550       .  S
C1700      C1704   1.573       .  S
C1700      C1703   1.535       .  S
C1701      C1705   1.536       .  S
C1701      C1707   1.585       .  S
C1701      C1706   1.543       .  S
C1702      C1710   1.395       .  A
C1702      C1705   1.418       .  A
C1703      C1714   1.392       .  A
C1703      C1706   1.419       .  A
C1704      C1718   1.395       .  A
C1704      C1707   1.425       .  A
C1705      C1708   1.395       .  A
C1706      C1712   1.392       .  A
C1707      C1715   1.379       .  A
C1708      H1721   1.079       .  S
C1708      N1709   1.344       .  A
N1709      C1710   1.344       .  A
C1710      H1711   1.080       .  S
C1712      H1722   1.079       .  S
C1712      N1713   1.336       .  A
N1713      C1714   1.340       .  A
N1713      C1924   1.437       .  S
C1714      H1720   1.079       .  S
C1715      H1717   1.077       .  S
C1715      N1716   1.343       .  A
N1716      C1718   1.351       .  A
N1716      C1906   1.442       .  S
C1718      H1719   1.081       .  S
C1723      C1725   1.539       .  S
C1723      C1727   1.549       .  S
C1723      C1726   1.570       .  S
C1723      C1747   1.671       .  S
C1724      C1728   1.539       .  S
C1724      C1730   1.563       .  S
C1724      C1729   1.574       .  S
C1724      C1746   1.670       .  S
C1725      C1733   1.392   1_455  A
C1726      C1737   1.384       .  A
C1727      C1741   1.401       .  A
C1728      C1731   1.391   1_455  A
C1729      C1735   1.393       .  A
C1730      C1738   1.407       .  A
C1731      H1744   1.079       .  S
C1731      N1732   1.349       .  A
C1733      H1734   1.079       .  S
C1735      H1745   1.081       .  S
C1735      N1736   1.360       .  A
C1737      H1743   1.081       .  S
C1738      H1740   1.079       .  S
C1738      N1739   1.340       .  A
C1741      H1742   1.079       .  S
C1746      C1748   1.577   1_455  S
C1746      C1750   1.550       .  S
C1746      C1749   1.541       .  S
C1747      C1751   1.563   1_455  S
C1747      C1753   1.550       .  S
C1747      C1752   1.526       .  S
C1748      C1756   1.389       .  A
C1748      C1751   1.430       .  A
C1749      C1760   1.393       .  A
C1749      C1752   1.403       .  A
C1750      C1764   1.400   1_455  A
C1750      C1753   1.430       .  A
C1751      C1754   1.383       .  A
C1752      C1758   1.378       .  A
C1753      C1761   1.397   1_455  A
C1754      H1767   1.079       .  S
C1754      N1755   1.353       .  A
N1755      C1756   1.358       .  A
C1756      H1757   1.080       .  S
C1758      H1768   1.079       .  S
C1758      N1759   1.344       .  A
N1759      C1760   1.348       .  A
N1759      C1834   1.442       .  S
C1760      H1766   1.080       .  S
C1761      H1763   1.079       .  S
C1761      N1762   1.335       .  A
N1762      C1764   1.332       .  A
N1762      C1850   1.436       .  S
C1764      H1765   1.079       .  S
O1769     Ni1777   1.913   1_455  S
O1770     Ni1777   1.930       .  S
O1771     Ni1777   1.919   1_545  S
O1771      C1781   1.277   1_556  A
O1772     Ni1777   1.943       .  S
O1772      C1782   1.281   1_556  A
O1773     Ni1778   1.912       .  S
O1774     Ni1778   1.910   1_545  S
O1775     Ni1778   1.919       .  S
O1775      C1780   1.272       .  A
O1776     Ni1778   1.913   1_455  S
O1776      C1779   1.274       .  A
C1779      C2032   1.463       .  S
C1780      C1958   1.488       .  S
C1781      C2086   1.468       .  S
C1782      C1888   1.483       .  S
O1783     Ni1791   1.902       .  S
O1783      C1793   1.273       .  A
O1784     Ni1791   1.913       .  S
O1784      C1794   1.274   1_565  A
O1785     Ni1791   1.927       .  S
O1785      C1795   1.275       .  A
O1786     Ni1791   1.938       .  S
O1786      C1796   1.278       .  A
O1787     Ni1792   1.916       .  S
O1787      C1796   1.273       .  A
O1788     Ni1792   1.904       .  S
O1788      C1795   1.273       .  A
O1789     Ni1792   1.938       .  S
O1789      C1794   1.278   1_565  A
O1790     Ni1792   1.925       .  S
O1790      C1793   1.280       .  A
Ni1791    Ni1792   2.369       .  S
C1793      C1852   1.465       .  S
C1794      C2048   1.483       .  S
C1795      C1922   1.465       .  S
C1796      C1994   1.485   1_655  S
O1797     Ni1805   1.923       .  S
O1798     Ni1805   1.922       .  S
O1799     Ni1805   1.908       .  S
O1799      C1809   1.278       .  A
O1800     Ni1805   1.912       .  S
O1800      C1810   1.272       .  A
O1801     Ni1806   1.934       .  S
O1802     Ni1806   1.925       .  S
O1803     Ni1806   1.911       .  S
O1803      C1808   1.271       .  A
O1804     Ni1806   1.941       .  S
O1804      C1807   1.277       .  A
C1807      C1870   1.487       .  S
C1808      C2102   1.463       .  S
C1809      C1942   1.473       .  S
C1810      C2014   1.475       .  S
O1811     Ni1819   1.925       .  S
O1811      C1821   1.277       .  A
O1812     Ni1819   1.918       .  S
O1812      C1822   1.275       .  A
O1813     Ni1819   1.912       .  S
O1813      C1823   1.273       .  A
O1814     Ni1819   1.920       .  S
O1814      C1824   1.272       .  A
O1815     Ni1820   1.937       .  S
O1815      C1824   1.278       .  A
O1816     Ni1820   1.921       .  S
O1816      C1823   1.277       .  A
O1817     Ni1820   1.919       .  S
O1817      C1822   1.276       .  A
O1818     Ni1820   1.925       .  S
O1818      C1821   1.277       .  A
Ni1819    Ni1820   2.368       .  S
C1821      C1904   1.481       .  S
C1822      C1976   1.469       .  S
C1823      C1832   1.465       .  S
C1824      C2068   1.486       .  S
C1825      C1826   1.406       .  A
C1825      C1830   1.406       .  A
C1825      C1833   1.484       .  S
C1826      C1827   1.396       .  A
C1826      H1835   1.081       .  S
C1827      C1828   1.408       .  A
C1827      H1836   1.080       .  S
C1828      C1829   1.400       .  A
C1828      C1831   1.484       .  S
C1829      C1830   1.397       .  A
C1829      H1837   1.082       .  S
C1830      H1838   1.084       .  S
C1831      H1839   1.088       .  S
C1831      C1832   1.343       .  D
C1832      H1840   1.082       .  S
C1833      H1841   1.084       .  S
C1833      C1834   1.352       .  D
C1834      H1842   1.084       .  S
C1843      C1844   1.401       .  A
C1843      C1848   1.409       .  A
C1843      C1851   1.484       .  S
C1844      C1845   1.397       .  A
C1844      H1853   1.083       .  S
C1845      C1846   1.409       .  A
C1845      H1854   1.080       .  S
C1846      C1847   1.401       .  A
C1846      C1849   1.482       .  S
C1847      C1848   1.394       .  A
C1847      H1855   1.084       .  S
C1848      H1856   1.081       .  S
C1849      H1857   1.086       .  S
C1849      C1850   1.345       .  D
C1850      H1858   1.084       .  S
C1851      H1859   1.087       .  S
C1851      C1852   1.342       .  D
C1852      H1860   1.082       .  S
C1861      C1862   1.406       .  A
C1861      C1866   1.408   1_556  A
C1861      C1869   1.499       .  S
C1862      C1863   1.406       .  A
C1863      C1864   1.411       .  A
C1864      C1865   1.404   1_556  A
C1864      C1867   1.501       .  S
C1865      C1866   1.401       .  A
C1865      H1873   1.080       .  S
C1866      H1874   1.081       .  S
C1867      H1875   1.087   1_556  S
C1867      C1868   1.350       .  D
C1869      C1870   1.348       .  D
C1870      H1878   1.082   1_556  S
C1879      C1880   1.407       .  A
C1879      C1884   1.411   1_556  A
C1879      C1887   1.502   1_455  S
C1880      C1881   1.406       .  A
C1880      H1889   1.083       .  S
C1881      C1882   1.410       .  A
C1881      H1890   1.081       .  S
C1882      C1883   1.402   1_556  A
C1882      C1885   1.494   1_556  S
C1883      C1884   1.399       .  A
C1883      H1891   1.084       .  S
C1884      H1892   1.079       .  S
C1885      H1893   1.086       .  S
C1885      C1886   1.349   1_554  D
C1886      H1894   1.085       .  S
C1887      H1895   1.086       .  S
C1887      C1888   1.350   1_556  D
C1897      C1898   1.406       .  A
C1897      C1902   1.402       .  A
C1897      C1905   1.486       .  S
C1898      C1899   1.402       .  A
C1898      H1907   1.083       .  S
C1899      C1900   1.409       .  A
C1899      H1908   1.081       .  S
C1900      C1901   1.404       .  A
C1900      C1903   1.492       .  S
C1901      C1902   1.399       .  A
C1901      H1909   1.083       .  S
C1902      H1910   1.083       .  S
C1903      H1911   1.086       .  S
C1903      C1904   1.347       .  D
C1904      H1912   1.079       .  S
C1905      H1913   1.083       .  S
C1905      C1906   1.345       .  D
C1906      H1914   1.086       .  S
C1915      C1916   1.404       .  A
C1915      C1920   1.410       .  A
C1915      C1923   1.484       .  S
C1916      C1917   1.394       .  A
C1916      H1925   1.084       .  S
C1917      C1918   1.405       .  A
C1917      H1926   1.080       .  S
C1918      C1919   1.400       .  A
C1918      C1921   1.479       .  S
C1919      C1920   1.395       .  A
C1919      H1927   1.083       .  S
C1920      H1928   1.079       .  S
C1921      H1929   1.088       .  S
C1921      C1922   1.344       .  D
C1922      H1930   1.081       .  S
C1923      H1931   1.085       .  S
C1923      C1924   1.345       .  D
C1924      H1932   1.083       .  S
C1933      C1934   1.403       .  A
C1933      C1941   1.483       .  S
C1934      C1935   1.396       .  A
C1934      H1943   1.083       .  S
C1935      H1944   1.083       .  S
C1936      C1937   1.402       .  A
C1936      C1939   1.475       .  S
C1937      C1938   1.400       .  A
C1937      H1945   1.083       .  S
C1938      H1946   1.081       .  S
C1939      H1947   1.086       .  S
C1939      C1940   1.339       .  D
C1941      H1949   1.082       .  S
C1942      H1950   1.085       .  S
C1951      C1952   1.406       .  A
C1951      C1956   1.407   1_554  A
C1951      C1959   1.497       .  S
C1952      C1953   1.403       .  A
C1952      H1961   1.083       .  S
C1953      C1954   1.407       .  A
C1953      H1962   1.081       .  S
C1954      C1955   1.409   1_554  A
C1954      C1957   1.500       .  S
C1955      C1956   1.407       .  A
C1955      H1963   1.083       .  S
C1956      H1964   1.082       .  S
C1959      H1967   1.087       .  S
C1960      H1968   1.083       .  S
C1969      C1970   1.400       .  A
C1969      C1974   1.410       .  A
C1969      C1977   1.483       .  S
C1970      C1971   1.394       .  A
C1970      H1979   1.083       .  S
C1971      C1972   1.408       .  A
C1971      H1980   1.080       .  S
C1972      C1973   1.402       .  A
C1972      C1975   1.487       .  S
C1973      C1974   1.399       .  A
C1973      H1981   1.084       .  S
C1974      H1982   1.081       .  S
C1975      H1983   1.087       .  S
C1975      C1976   1.345       .  D
C1976      H1984   1.081       .  S
C1977      H1985   1.086       .  S
C1977      C1978   1.342       .  D
C1978      H1986   1.085       .  S
C1987      C1988   1.403       .  A
C1987      C1992   1.412       .  A
C1987      C1995   1.501       .  S
C1988      C1989   1.399       .  A
C1988      H1997   1.080       .  S
C1989      C1990   1.409       .  A
C1989      H1998   1.080       .  S
C1990      C1991   1.406       .  A
C1990      C1993   1.500       .  S
C1991      C1992   1.407       .  A
C1991      H1999   1.083       .  S
C1992      H2000   1.080       .  S
C1993      H2001   1.086       .  S
C1993      C1994   1.348       .  D
C1994      H2002   1.082       .  S
C1995      H2003   1.087       .  S
C1995      C1996   1.349       .  D
C1996      H2004   1.084       .  S
C2005      C2006   1.401       .  A
C2005      C2010   1.410       .  A
C2005      C2013   1.493       .  S
C2006      C2007   1.400       .  A
C2007      C2008   1.408       .  A
C2008      C2009   1.408   1_556  A
C2008      C2011   1.496       .  S
C2009      C2010   1.402   1_554  A
C2009      H2017   1.079       .  S
C2010      H2018   1.081   1_556  S
C2011      H2019   1.083       .  S
C2013      H2021   1.087       .  S
C2023      C2028   1.406   1_556  A
C2023      C2031   1.480       .  S
C2024      H2033   1.082       .  S
C2025      C2026   1.406       .  A
C2026      C2027   1.408   1_556  A
C2026      C2029   1.486       .  S
C2027      C2028   1.396       .  A
C2027      H2035   1.079       .  S
C2028      H2036   1.081       .  S
C2029      H2037   1.083       .  S
C2030      H2038   1.083       .  S
C2041      C2042   1.404       .  A
C2041      C2046   1.411       .  A
C2041      C2049   1.499       .  S
C2042      C2043   1.401       .  A
C2042      H2051   1.083       .  S
C2043      C2044   1.410       .  A
C2043      H2052   1.080       .  S
C2044      C2045   1.406       .  A
C2044      C2047   1.500       .  S
C2045      C2046   1.404       .  A
C2045      H2053   1.082       .  S
C2046      H2054   1.080       .  S
C2047      H2055   1.087       .  S
C2047      C2048   1.349       .  D
C2048      H2056   1.082       .  S
C2049      H2057   1.086       .  S
C2049      C2050   1.350       .  D
C2050      H2058   1.084       .  S
C2059      C2060   1.407       .  A
C2059      C2064   1.408       .  A
C2059      C2067   1.499       .  S
C2060      C2061   1.404       .  A
C2060      H2069   1.083       .  S
C2061      C2062   1.407       .  A
C2061      H2070   1.081       .  S
C2062      C2063   1.407       .  A
C2062      C2065   1.499       .  S
C2063      C2064   1.404       .  A
C2063      H2071   1.083       .  S
C2064      H2072   1.081       .  S
C2065      H2073   1.087       .  S
C2065      C2066   1.351       .  D
C2066      H2074   1.085       .  S
C2067      H2075   1.085       .  S
C2067      C2068   1.349       .  D
C2068      H2076   1.084       .  S
C2077      C2078   1.402   1_554  A
C2077      C2085   1.485       .  S
C2078      C2079   1.398       .  A
C2078      H2087   1.083       .  S
C2079      H2088   1.081       .  S
C2080      C2081   1.401       .  A
C2080      C2083   1.482       .  S
C2081      C2082   1.392       .  A
C2081      H2089   1.084       .  S
C2082      H2090   1.080       .  S
C2083      H2091   1.085       .  S
C2084      H2092   1.084       .  S
C2085      H2093   1.087   1_554  S
C2085      C2086   1.345       .  D
C2095      C2096   1.398       .  A
C2095      C2100   1.405       .  A
C2095      C2103   1.471       .  S
C2096      C2097   1.397       .  A
C2097      C2098   1.411       .  A
C2098      C2099   1.397       .  A
C2098      C2101   1.478       .  S
C2099      C2100   1.392       .  A
C2099      H2107   1.083       .  S
C2100      H2108   1.082       .  S
C2101      H2109   1.086       .  S
C2102      H2110   1.083       .  S
