geometry optimzed in LAMMPS
_audit_creation_date              2020-12-01 
_audit_creation_method            'lammps2cif' 
_symmetry_space_group_name_H-M    'P1' 
_symmetry_Int_Tables_number       1 
_symmetry_cell_setting            triclinic 
loop_ 
_symmetry_equiv_pos_as_xyz 
  x,y,z 
_cell_length_a                    44.77927859 
_cell_length_b                    45.08852891919121 
_cell_length_c                    44.64587225697109 
_cell_angle_alpha                 89.91490853404618 
_cell_angle_beta                  90.07375994277965 
_cell_angle_gamma                 89.90208552633905 
loop_ 
_atom_site_label 
_atom_site_type_symbol 
_atom_site_fract_x 
_atom_site_fract_y 
_atom_site_fract_z 
_atom_site_charge 
C1          C  0.00277689  0.09012047  0.17826900     0.42500
N2          N  0.48731111  0.06370423  0.21508439     0.01400
C3          C  0.07311589  0.47029634  0.30296851    -0.06500
H4          H  0.07504681  0.44775128  0.18609635     0.06900
C5          C  0.46541324  0.42392390  0.19343468    -0.06900
Co6        Co  0.03795976  0.03590314  0.24813924     0.74200
N7          N  0.05645395  0.48139363  0.21504498    -0.26000
Co8        Co  0.03171146  0.45934678  0.24764336     0.74100
C9          C  0.99138427  0.41036982  0.17922054     0.42600
N10         N  0.43467619  0.49187043  0.21447223     0.01000
N11         N  0.00613319  0.43862369  0.21477589     0.01100
N12         N  0.07581645  0.02031107  0.30209044    -0.46900
H13         H  0.05192715  0.07823594  0.18800124     0.06800
N14         N  0.05887505  0.01054251  0.21550595     0.01400
N15         N  0.00581297  0.43857598  0.28029808     0.01100
C16         C  0.49115965  0.41125244  0.31665436     0.42700
N17         N  0.43700955  0.02104545  0.21482473    -0.25500
C18         C  0.02759916  0.07780012  0.30236854    -0.06400
N19         N  0.47795770  0.08111398  0.19304319    -0.46600
N20         N  0.01553368  0.42092036  0.30195327    -0.46800
C21         C  0.50185220  0.09245688  0.31600006     0.42500
N22         N  0.05832658  0.01022685  0.28063548     0.01400
N23         N  0.43631535  0.02073547  0.28008286    -0.25500
N24         N  0.01665581  0.06080303  0.21554540    -0.26000
N25         N  0.43386662  0.49156916  0.27973648     0.01000
H26         H  0.41690598  0.05456095  0.30815571     0.06900
H27         H  0.44168449  0.42210336  0.30723186     0.06900
N28         N  0.05640704  0.48107438  0.28047470    -0.26100
N29         N  0.47678051  0.44103266  0.21506674    -0.25700
N30         N  0.48682849  0.06388482  0.28060750     0.01400
C31         C  0.08542103  0.99721865  0.17799957     0.42800
C32         C  0.42156251  0.03219803  0.19173290    -0.06900
N33         N  0.47650727  0.44108700  0.27998787    -0.25700
H34         H  0.44190844  0.42072591  0.18898404     0.06900
N35         N  0.07609915  0.02087029  0.19387240    -0.46900
H36         H  0.41921890  0.05549027  0.18640756     0.06900
C37         C  0.40642052  0.50514174  0.31647184     0.42600
C38         C  0.02839661  0.07654212  0.19307198    -0.06400
Co39       Co  0.46130846  0.04291108  0.24771220     0.73800
N40         N  0.41805726  0.48212270  0.19205203    -0.46600
C41         C  0.08604352  0.49655192  0.31724633     0.42900
N42         N  0.47730237  0.08258303  0.30143238    -0.46600
Co43       Co  0.45488781  0.46603833  0.24731467     0.73900
C44         C  0.46516022  0.42464478  0.30221865    -0.06900
C45         C  0.07235494  0.47088330  0.19189867    -0.06500
N46         N  0.01612435  0.06094411  0.28057507    -0.26000
N47         N  0.01587133  0.42041149  0.19364549    -0.46800
H48         H  0.07646994  0.44704857  0.30791264     0.06900
C49         C  0.41984092  0.03137389  0.30272032    -0.06900
Cl50       Cl  0.99642089  0.00104589  0.24776775    -0.49900
C51         C  0.40926895  0.00631789  0.17653354     0.42600
H52         H  0.05111611  0.07999364  0.30729607     0.06800
N53         N  0.41613584  0.48137110  0.30102323    -0.46600
C54         C  0.08702630  0.18300579  0.49883702     0.42500
N55         N  0.05951709  0.21989643  0.48629423     0.01400
C56         C  0.46699284  0.30399179  0.07642834    -0.06500
H57         H  0.44604625  0.18776439  0.07691050     0.06900
C58         C  0.41847895  0.19799595  0.46773700    -0.06900
Co59       Co  0.03331239  0.25098138  0.03913539     0.74200
N60         N  0.47916454  0.21712448  0.05824361    -0.26000
Co61       Co  0.45584772  0.24988985  0.03483509     0.74100
C62         C  0.40472378  0.18359402  0.49361102     0.42600
N63         N  0.48562491  0.21980276  0.43527870     0.01000
N64         N  0.43411500  0.21812350  0.00878515     0.01100
N65         N  0.01753896  0.30494369  0.07814522    -0.46900
H66         H  0.07781969  0.19040384  0.04904940     0.06800
N67         N  0.00857242  0.21784026  0.06006849     0.01400
N68         N  0.43396910  0.28279569  0.01029266     0.01100
C69         C  0.40701546  0.32006459  0.49745898     0.42700
N70         N  0.01503646  0.22042138  0.43693017    -0.25500
C71         C  0.07566561  0.30486303  0.02782268    -0.06400
N72         N  0.07686804  0.19879996  0.47525024    -0.46600
N73         N  0.41683766  0.30416776  0.02116507    -0.46800
C74         C  0.08885289  0.31884376  0.50126626     0.42500
N75         N  0.00765563  0.28292322  0.06116127     0.01400
N76         N  0.01432981  0.28516776  0.43812323    -0.25500
N77         N  0.05785527  0.21913100  0.01578899    -0.26000
N78         N  0.48494357  0.28471833  0.43630496     0.01000
H79         H  0.04781682  0.31330320  0.41831973     0.06900
H80         H  0.41650523  0.31232772  0.44733054     0.06900
N81         N  0.47820281  0.28196549  0.05977905    -0.26100
N82         N  0.43592682  0.21912566  0.47933788    -0.25700
N83         N  0.05884624  0.28434104  0.48750704     0.01400
C84         C  0.99624009  0.17935096  0.08547855     0.42800
C85         C  0.02611261  0.19842765  0.42016677    -0.06900
N86         N  0.43586317  0.28357384  0.48080700    -0.25700
H87         H  0.41550566  0.19406272  0.44410227     0.06900
N88         N  0.01961518  0.19590648  0.07640321    -0.46900
H89         H  0.04957129  0.19366412  0.41695331     0.06900
C90         C  0.49780833  0.32212864  0.40960756     0.42600
C91         C  0.07441121  0.19634197  0.02581422    -0.06400
Co92       Co  0.03737204  0.25251260  0.46178776     0.73800
N93         N  0.47562853  0.19820355  0.41783403    -0.46600
C94         C  0.49304935  0.31938097  0.08824755     0.42900
N95         N  0.07731615  0.30477771  0.47727559    -0.46600
Co96       Co  0.46020667  0.25177278  0.45741470     0.73900
C97         C  0.41963995  0.30647278  0.47062160    -0.06900
C98         C  0.46923688  0.19359547  0.07373664    -0.06500
N99         N  0.05758159  0.28373330  0.01699086    -0.26000
N100        N  0.41563219  0.19722250  0.01828876    -0.46800
H101        H  0.44353198  0.30864555  0.07979303     0.06900
C102        C  0.02456122  0.30804537  0.42190326    -0.06900
Cl103      Cl  0.49667949  0.25127976  0.49831659    -0.49900
C104        C  0.99995656  0.18358014  0.40767648     0.42600
H105        H  0.08002079  0.30875582  0.05130789     0.06800
N106        N  0.47417642  0.30618868  0.41915738    -0.46600
C107        C  0.31507948  0.50329313  0.08836858     0.42500
N108        N  0.27762754  0.01491688  0.06090068     0.01400
C109        C  0.19710331  0.41988963  0.47032538    -0.06500
H110        H  0.30963058  0.42296525  0.44706605     0.06900
C111        C  0.30172518  0.03150752  0.42195071    -0.06900
Co112      Co  0.24820942  0.46140996  0.03520007     0.74200
N113        N  0.28220867  0.44257687  0.48116436    -0.26000
Co114      Co  0.24881708  0.46471025  0.45798669     0.74100
C115        C  0.31771040  0.50572814  0.41033078     0.42600
N116        N  0.27696303  0.06470229  0.48669031     0.01000
N117        N  0.28048216  0.49096493  0.43652878     0.01100
N118        N  0.19764112  0.41884140  0.02091708    -0.46900
H119        H  0.30822494  0.45336270  0.07957780     0.06800
N120        N  0.28236100  0.44118168  0.01065970     0.01400
N121        N  0.21527736  0.48806911  0.43593414     0.01100
C122        C  0.17767692  0.00002699  0.40875859     0.42700
N123        N  0.27638308  0.06344076  0.01617853    -0.25500
C124        C  0.19063775  0.47157509  0.07338553    -0.06400
N125        N  0.29877042  0.02634567  0.07803790    -0.46600
N126        N  0.19387863  0.47680853  0.41891736    -0.46800
C127        C  0.17431551  0.99746774  0.08439222     0.42500
N128        N  0.21741050  0.43781423  0.01020157     0.01400
N129        N  0.21112378  0.06063379  0.01496720    -0.25500
N130        N  0.27901293  0.48573735  0.05947683    -0.26000
N131        N  0.21159868  0.06220597  0.48549046     0.01000
H132        H  0.18194468  0.07937149  0.04834574     0.06900
H133        H  0.18518376  0.04989556  0.41767016     0.06900
N134        N  0.21760333  0.43889380  0.48071513    -0.26100
N135        N  0.27924486  0.02014252  0.43799709    -0.25700
N136        N  0.21247206  0.01204606  0.05950159     0.01400
C137        C  0.32028755  0.41531259  0.49706865     0.42800
C138        C  0.29832626  0.08053195  0.02705855    -0.06900
N139        N  0.21431802  0.01728819  0.43724112    -0.25700
H140        H  0.30558474  0.05487492  0.41824033     0.06900
N141        N  0.30455633  0.42467094  0.02113623    -0.46900
H142        H  0.30255090  0.08441081  0.05055674     0.06900
C143        C  0.17297562  0.08739632  0.49812725     0.42600
C144        C  0.30201072  0.47629353  0.07609513    -0.06400
Co145      Co  0.24436970  0.03824507  0.03848104     0.73800
N146        N  0.29847563  0.08206841  0.47644304    -0.46600
C147        C  0.18378629  0.40657711  0.49717141     0.42900
N148        N  0.18945791  0.02169939  0.07530059    -0.46600
Co149      Co  0.24553613  0.04163052  0.46132445     0.73900
C150        C  0.19130190  0.02689951  0.42082243    -0.06900
C151        C  0.30515832  0.42682728  0.47051775    -0.06500
N152        N  0.21383031  0.48282455  0.05818583    -0.26000
N153        N  0.30296888  0.48140739  0.41992308    -0.46800
H154        H  0.19315036  0.41525290  0.44694113     0.06900
C155        C  0.18752573  0.07592196  0.02505208    -0.06900
Cl156      Cl  0.24671009  0.00148661  0.49823788    -0.49900
C157        C  0.31327968  0.09260956  0.50058248     0.42600
H158        H  0.18622033  0.44827256  0.07676299     0.06800
N159        N  0.18946976  0.07845158  0.47448587    -0.46600
C160        C  0.38599517  0.34546087  0.49888102    -0.00100
C161        C  0.38621332  0.36639127  0.47556695    -0.12000
C162        C  0.36595101  0.39007234  0.47510105     0.02100
C163        C  0.34436023  0.39274936  0.49802813    -0.00200
C164        C  0.34486088  0.37247433  0.02190017    -0.11900
C165        C  0.36538552  0.34902634  0.02257741     0.02000
H166        H  0.40249780  0.36446464  0.45771170     0.15000
H167        H  0.32853292  0.37437371  0.03972862     0.15000
C168        C  0.36374404  0.32833646  0.04723012     0.36600
C169        C  0.36872306  0.41179150  0.45144712     0.36500
N170        N  0.36237207  0.31180229  0.06703120    -0.43700
N171        N  0.37114289  0.42921137  0.43253299    -0.43700
C172        C  0.33759878  0.11494882  0.49896190    -0.00100
C173        C  0.33953832  0.13275683  0.47320759    -0.12000
C174        C  0.36116153  0.15501822  0.47058212     0.02100
C175        C  0.38156338  0.16001271  0.49428467    -0.00200
C176        C  0.37961857  0.14216867  0.01995582    -0.11900
C177        C  0.35854013  0.11936815  0.02225143     0.02000
H178        H  0.32365458  0.12967398  0.45509914     0.15000
H179        H  0.39502215  0.14582859  0.03829397     0.15000
C180        C  0.36034532  0.09999904  0.04795341     0.36600
C181        C  0.36052585  0.17305884  0.44387319     0.36500
N182        N  0.36240637  0.08446222  0.06851368    -0.43700
N183        N  0.35963044  0.18725839  0.42226834    -0.43700
C184        C  0.11341786  0.34100026  0.49986383    -0.00100
C185        C  0.12590363  0.35161698  0.02665775    -0.12000
C186        C  0.14947383  0.37201226  0.02647546     0.02100
C187        C  0.16020787  0.38343995  0.49894132    -0.00200
C188        C  0.14816808  0.37232505  0.47222577    -0.11900
C189        C  0.12549239  0.35107595  0.47235596     0.02000
H190        H  0.11774405  0.34360922  0.04799264     0.15000
H191        H  0.15675013  0.37979021  0.45090066     0.15000
C192        C  0.11609284  0.33957013  0.44369067     0.36600
C193        C  0.16275217  0.37963133  0.05494155     0.36500
N194        N  0.10905673  0.33027387  0.42059042    -0.43700
N195        N  0.17349103  0.38529927  0.07782121    -0.43700
C196        C  0.14897434  0.10993492  0.49670227    -0.00100
C197        C  0.15082932  0.13243814  0.47505791    -0.12000
C198        C  0.13054127  0.15610273  0.47489535     0.02100
C199        C  0.10795541  0.15763353  0.49694431    -0.00200
C200        C  0.10533623  0.13443515  0.01777778    -0.11900
C201        C  0.12522518  0.11041480  0.01745660     0.02000
H202        H  0.16881175  0.13210416  0.45880733     0.15000
H203        H  0.08740600  0.13483412  0.03408005     0.15000
C204        C  0.11981067  0.08585948  0.03752932     0.36600
C205        C  0.13445925  0.17914241  0.45274815     0.36500
N206        N  0.11522035  0.06598736  0.05329798    -0.43700
N207        N  0.13768902  0.19752474  0.43492916    -0.43700
C208        C  0.38459978  0.50411980  0.34130452    -0.00100
C209        C  0.38419396  0.02744677  0.36208251    -0.12000
C210        C  0.36330222  0.02810495  0.38535971     0.02100
C211        C  0.34196897  0.50518380  0.38790286    -0.00200
C212        C  0.34306408  0.48133663  0.36778453    -0.11900
C213        C  0.36394854  0.48062773  0.34455828     0.02000
H214        H  0.40041796  0.04519508  0.36031124     0.15000
H215        H  0.32685910  0.46356015  0.36955924     0.15000
C216        C  0.36244352  0.45624039  0.32365805     0.36600
C217        C  0.36510820  0.05202632  0.40675091     0.36500
N218        N  0.36102633  0.43669168  0.30694379    -0.43700
N219        N  0.36679848  0.07124335  0.42382995    -0.43700
C220        C  0.10888241  0.49788490  0.34122910    -0.00100
C221        C  0.11518875  0.47223263  0.35795739    -0.12000
C222        C  0.13727792  0.47223763  0.38018920     0.02100
C223        C  0.15348711  0.99844274  0.38617677    -0.00200
C224        C  0.14686098  0.02411818  0.36969273    -0.11900
C225        C  0.12499476  0.02414596  0.34745818     0.02000
H226        H  0.10283609  0.45200757  0.35377921     0.15000
H227        H  0.15927745  0.04435227  0.37355557     0.15000
C228        C  0.12059056  0.05145474  0.33103622     0.36600
C229        C  0.14227119  0.44507382  0.39655627     0.36500
N230        N  0.11732064  0.07342748  0.31799101    -0.43700
N231        N  0.14584968  0.42300519  0.40931237    -0.43700
C232        C  0.14982434  0.99811692  0.10654908    -0.00100
C233        C  0.15004121  0.02058124  0.12822928    -0.12000
C234        C  0.12916347  0.02089614  0.15146085     0.02100
C235        C  0.10716554  0.99849398  0.15311333    -0.00200
C236        C  0.10620305  0.47664010  0.13074691    -0.11900
C237        C  0.12711765  0.47642125  0.10741211     0.02000
H238        H  0.16733611  0.03737994  0.12773584     0.15000
H239        H  0.08892003  0.45984037  0.13133603     0.15000
C240        C  0.12387175  0.45459471  0.08402404     0.36600
C241        C  0.13220073  0.04343116  0.17422458     0.36500
N242        N  0.12090935  0.43725924  0.06517164    -0.43700
N243        N  0.13479487  0.06140132  0.19252473    -0.43700
C244        C  0.38691552  0.00606967  0.15224570    -0.00100
C245        C  0.36793102  0.03064284  0.14899824    -0.12000
C246        C  0.34470562  0.03055376  0.12808918     0.02100
C247        C  0.34026783  0.50542619  0.10968640    -0.00200
C248        C  0.35995538  0.48127375  0.11223915    -0.11900
C249        C  0.38316625  0.48138136  0.13318345     0.02000
H250        H  0.37047854  0.04967923  0.16357715     0.15000
H251        H  0.35735624  0.46216405  0.09777294     0.15000
C252        C  0.40317872  0.45622914  0.13389875     0.36600
C253        C  0.32515654  0.05604795  0.12716960     0.36500
N254        N  0.41913434  0.43601178  0.13401033    -0.43700
N255        N  0.30957040  0.07654300  0.12653652    -0.43700
C256        C  0.50168217  0.11599318  0.33925979    -0.00100
C257        C  0.47708389  0.11806504  0.35867319    -0.12000
C258        C  0.47597604  0.13968370  0.38125935     0.02100
C259        C  0.99979766  0.15994641  0.38459149    -0.00200
C260        C  0.02423818  0.15794658  0.36507471    -0.11900
C261        C  0.02532027  0.13652787  0.34248008     0.02000
H262        H  0.45885252  0.10240148  0.35652447     0.12600
H263        H  0.04238464  0.17372843  0.36689389     0.15000
C264        C  0.05024031  0.13761245  0.32202838     0.36600
C265        C  0.45074710  0.13968479  0.40136734     0.36500
N266        N  0.07030138  0.13888985  0.30575691    -0.43700
N267        N  0.43052008  0.13937489  0.41747381    -0.43700
C268        C  0.49178942  0.38891207  0.34086367    -0.00100
C269        C  0.01416647  0.39084507  0.36270231    -0.12000
C270        C  0.01628348  0.36978474  0.38571176     0.02100
C271        C  0.49592858  0.34591839  0.38680106    -0.00200
C272        C  0.47321152  0.34431182  0.36515840    -0.11900
C273        C  0.47109020  0.36536450  0.34219436     0.02000
H274        H  0.02992696  0.40908589  0.36197194     0.15000
H275        H  0.45754599  0.32599122  0.36561537     0.15000
C276        C  0.44875665  0.36102151  0.31925719     0.36600
C277        C  0.03864352  0.37410383  0.40858316     0.36500
N278        N  0.43098192  0.35738927  0.30078428    -0.43700
N279        N  0.05644873  0.37795566  0.42696802    -0.43700
C280        C  0.49308991  0.34309803  0.11105375    -0.00100
C281        C  0.47203759  0.34163914  0.13423424    -0.12000
C282        C  0.47138600  0.36302696  0.15685954     0.02100
C283        C  0.99165288  0.38699362  0.15608183    -0.00200
C284        C  0.01280110  0.38848368  0.13294391    -0.11900
C285        C  0.01368879  0.36678228  0.11046263     0.02000
H286        H  0.45656953  0.32316543  0.13521151     0.15000
H287        H  0.02840465  0.40685843  0.13222429     0.15000
C288        C  0.03505324  0.36997847  0.08647550     0.36600
C289        C  0.45116908  0.35859515  0.18164030     0.36500
N290        N  0.05211834  0.37270557  0.06722174    -0.43700
N291        N  0.43518866  0.35480084  0.20163184    -0.43700
C292        C  0.00277296  0.11184725  0.15346458    -0.00100
C293        C  0.47950536  0.11073256  0.13238413    -0.12000
C294        C  0.47768778  0.13156710  0.10916202     0.02100
C295        C  0.99864158  0.15487257  0.10752808    -0.00200
C296        C  0.02253564  0.15525644  0.12790221    -0.11900
C297        C  0.02491592  0.13397602  0.15060906     0.02000
H298        H  0.46304881  0.09313996  0.13372455     0.15000
H299        H  0.03909383  0.17274755  0.12661636     0.15000
C300        C  0.04953684  0.13649292  0.17135729     0.36600
C301        C  0.45550396  0.12706805  0.08624151     0.36500
N302        N  0.06941961  0.13860839  0.18780394    -0.43700
N303        N  0.43802634  0.12268143  0.06769930    -0.43700
C304        C  0.00275914  0.09011658  0.67826894     0.42500
N305        N  0.48730675  0.06370459  0.71508365     0.01400
C306        C  0.07312158  0.47030777  0.80296077    -0.06500
H307        H  0.07504112  0.44775952  0.68609119     0.06900
C308        C  0.46541400  0.42392484  0.69343457    -0.06900
Co309      Co  0.03796991  0.03589941  0.74813328     0.74200
N310        N  0.05644950  0.48140186  0.71504058    -0.26000
Co311      Co  0.03171167  0.45935435  0.74764172     0.74100
C312        C  0.99138236  0.41037104  0.67922511     0.42600
N313        N  0.43467525  0.49186816  0.71447169     0.01000
N314        N  0.00613287  0.43862715  0.71477751     0.01100
N315        N  0.07582440  0.02031929  0.80208620    -0.46900
H316        H  0.05191111  0.07824394  0.68800176     0.06800
N317        N  0.05888650  0.01054366  0.71550247     0.01400
N318        N  0.00581739  0.43858324  0.78029901     0.01100
C319        C  0.49116680  0.41125181  0.81665333     0.42700
N320        N  0.43700646  0.02104445  0.71482377    -0.25500
C321        C  0.02758641  0.07780159  0.80235562    -0.06400
N322        N  0.47795200  0.08111570  0.69304408    -0.46600
N323        N  0.01554119  0.42092805  0.80195310    -0.46800
C324        C  0.50184736  0.09245266  0.81600076     0.42500
N325        N  0.05833817  0.01023233  0.78063015     0.01400
N326        N  0.43631239  0.02073267  0.78007959    -0.25500
N327        N  0.01664395  0.06079435  0.71554117    -0.26000
N328        N  0.43386606  0.49156830  0.77973477     0.01000
H329        H  0.41689258  0.05455884  0.80814406     0.06900
H330        H  0.44169008  0.42209752  0.80723225     0.06900
N331        N  0.05640813  0.48108513  0.78047020    -0.26100
N332        N  0.47678148  0.44103216  0.71506739    -0.25700
N333        N  0.48682514  0.06388232  0.78060638     0.01400
C334        C  0.08541511  0.99722034  0.67798712     0.42800
C335        C  0.42155569  0.03219760  0.69173485    -0.06900
N336        N  0.47651030  0.44108702  0.77998861    -0.25700
H337        H  0.44190903  0.42072860  0.68898269     0.06900
N338        N  0.07609957  0.02087260  0.69386176    -0.46900
H339        H  0.41920955  0.05549009  0.68641149     0.06900
C340        C  0.40640889  0.50514384  0.81645980     0.42600
C341        C  0.02838072  0.07654093  0.69307058    -0.06400
Co342      Co  0.46130553  0.04290949  0.74771072     0.73800
N343        N  0.41805359  0.48212070  0.69205334    -0.46600
C344        C  0.08605076  0.49656357  0.81723551     0.42900
N345        N  0.47729814  0.08257909  0.80143204    -0.46600
Co346      Co  0.45488860  0.46603717  0.74731466     0.73900
C347        C  0.46516548  0.42464257  0.80221904    -0.06900
C348        C  0.07234855  0.47089151  0.69189303    -0.06500
N349        N  0.01611438  0.06093477  0.78056825    -0.26000
N350        N  0.01587036  0.42041457  0.69364722    -0.46800
H351        H  0.07647971  0.44706027  0.80790350     0.06900
C352        C  0.41983168  0.03137154  0.80271180    -0.06900
Cl353      Cl  0.99644660  0.00105672  0.74773534    -0.49900
C354        C  0.40926061  0.00631773  0.67653667     0.42600
H355        H  0.05110352  0.08000502  0.80727803     0.06800
N356        N  0.41612870  0.48137160  0.80101663    -0.46600
C357        C  0.08701830  0.18299171  0.99882568     0.42500
N358        N  0.05951460  0.21988719  0.98628525     0.01400
C359        C  0.46698838  0.30399817  0.57642411    -0.06500
H360        H  0.44604486  0.18776847  0.57691224     0.06900
C361        C  0.41847801  0.19799981  0.96773429    -0.06900
Co362      Co  0.03330987  0.25099025  0.53914138     0.74200
N363        N  0.47916302  0.21712890  0.55824516    -0.26000
Co364      Co  0.45584496  0.24989193  0.53483539     0.74100
C365        C  0.40472257  0.18359689  0.99360756     0.42600
N366        N  0.48562369  0.21980229  0.93527695     0.01000
N367        N  0.43411410  0.21812305  0.50878685     0.01100
N368        N  0.01753170  0.30495212  0.57814688    -0.46900
H369        H  0.07782518  0.19041891  0.54906018     0.06800
N370        N  0.00857186  0.21784811  0.56007646     0.01400
N371        N  0.43396459  0.28279552  0.51029222     0.01100
C372        C  0.40701835  0.32006328  0.99745864     0.42700
N373        N  0.01503311  0.22042198  0.93692111    -0.25500
C374        C  0.07565924  0.30487472  0.52782557    -0.06400
N375        N  0.07686227  0.19878872  0.97523979    -0.46600
N376        N  0.41683491  0.30416872  0.52116495    -0.46800
C377        C  0.08885976  0.31883271  0.00126407     0.42500
N378        N  0.00764989  0.28293060  0.56116384     0.01400
N379        N  0.01433499  0.28516776  0.93812021    -0.25500
N380        N  0.05785708  0.21914136  0.51579792    -0.26000
N381        N  0.48494839  0.28471705  0.93630334     0.01000
H382        H  0.04782573  0.31329803  0.91831538     0.06900
H383        H  0.41650906  0.31232641  0.94733046     0.06900
N384        N  0.47819867  0.28197003  0.55977750    -0.26100
N385        N  0.43592729  0.21912769  0.97933629    -0.25700
N386        N  0.05885159  0.28433213  0.98750305     0.01400
C387        C  0.99624001  0.17935767  0.58548467     0.42800
C388        C  0.02610570  0.19842940  0.92015367    -0.06900
N389        N  0.43586839  0.28357464  0.98080745    -0.25700
H390        H  0.41550466  0.19406862  0.94409959     0.06900
N391        N  0.01961505  0.19591505  0.57641224    -0.46900
H392        H  0.04956367  0.19366356  0.91693820     0.06900
C393        C  0.49781706  0.32212184  0.90960013     0.42600
C394        C  0.07441635  0.19635530  0.52582475    -0.06400
Co395      Co  0.03737332  0.25250805  0.96178162     0.73800
N396        N  0.47562466  0.19820454  0.91783201    -0.46600
C397        C  0.49304485  0.31938867  0.58824210     0.42900
N398        N  0.07732221  0.30476862  0.97727265    -0.46600
Co399      Co  0.46020910  0.25177340  0.95741388     0.73900
C400        C  0.41964451  0.30647262  0.97062173    -0.06900
C401        C  0.46923548  0.19360043  0.57373885    -0.06500
N402        N  0.05757631  0.28374348  0.51699492    -0.26000
N403        N  0.41563222  0.19722167  0.51829153    -0.46800
H404        H  0.44352759  0.30865231  0.57978776     0.06900
C405        C  0.02456942  0.30804397  0.92190015    -0.06900
Cl406      Cl  0.49668200  0.25127690  0.99831562    -0.49900
C407        C  0.99994716  0.18358726  0.90766164     0.42600
H408        H  0.08001461  0.30876853  0.55131063     0.06800
N409        N  0.47418338  0.30618573  0.91915219    -0.46600
C410        C  0.31507359  0.50329804  0.58837365     0.42500
N411        N  0.27761969  0.01491814  0.56090395     0.01400
C412        C  0.19709763  0.41989038  0.97032485    -0.06500
H413        H  0.30961889  0.42295544  0.94705816     0.06900
C414        C  0.30171494  0.03150482  0.92193908    -0.06900
Co415      Co  0.24820849  0.46141365  0.53520247     0.74200
N416        N  0.28220371  0.44257243  0.98115864    -0.26000
Co417      Co  0.24881166  0.46470895  0.95798365     0.74100
C418        C  0.31769574  0.50572770  0.91031427     0.42600
N419        N  0.27696667  0.06469921  0.98668744     0.01000
N420        N  0.28047600  0.49096288  0.93652278     0.01100
N421        N  0.19764197  0.41884413  0.52091760    -0.46900
H422        H  0.30821949  0.45336762  0.57958358     0.06800
N423        N  0.28236369  0.44118634  0.51066535     0.01400
N424        N  0.21527121  0.48807048  0.93593412     0.01100
C425        C  0.17767034  0.00003199  0.90876238     0.42700
N426        N  0.27637881  0.06344291  0.51618139    -0.25500
C427        C  0.19063289  0.47157904  0.57338333    -0.06400
N428        N  0.29876050  0.02634705  0.57804362    -0.46600
N429        N  0.19387234  0.47681204  0.91891593    -0.46800
C430        C  0.17430580  0.99746834  0.58438442     0.42500
N431        N  0.21741247  0.43781609  0.51020266     0.01400
N432        N  0.21112019  0.06063436  0.51496569    -0.25500
N433        N  0.27900908  0.48574228  0.55948038    -0.26000
N434        N  0.21160213  0.06220517  0.98549196     0.01000
H435        H  0.18194487  0.07937493  0.54834533     0.06900
H436        H  0.18518234  0.04989959  0.91767018     0.06900
N437        N  0.21759872  0.43889359  0.98071401    -0.26100
N438        N  0.27923943  0.02014015  0.93799183    -0.25700
N439        N  0.21246492  0.01204630  0.55949837     0.01400
C440        C  0.32027910  0.41530150  0.99706015     0.42800
C441        C  0.29832139  0.08053453  0.52706215    -0.06900
N442        N  0.21431380  0.01728981  0.93724290    -0.25700
H443        H  0.30557344  0.05487224  0.91822690     0.06900
N444        N  0.30456108  0.42467924  0.52114359    -0.46900
H445        H  0.30254606  0.08441309  0.55056069     0.06900
C446        C  0.17297663  0.08739164  0.99812705     0.42600
C447        C  0.30200556  0.47629855  0.57610012    -0.06400
Co448      Co  0.24436423  0.03824590  0.53848128     0.73800
N449        N  0.29847969  0.08206454  0.97643942    -0.46600
C450        C  0.18378337  0.40657591  0.99717122     0.42900
N451        N  0.18944955  0.02169983  0.57529526    -0.46600
Co452      Co  0.24553599  0.04162934  0.96132372     0.73900
C453        C  0.19129829  0.02690322  0.92082446    -0.06900
C454        C  0.30514980  0.42681884  0.97051024    -0.06500
N455        N  0.21382676  0.48282816  0.55818513    -0.26000
N456        N  0.30295718  0.48140601  0.91990902    -0.46800
H457        H  0.19314235  0.41525532  0.94694027     0.06900
C458        C  0.18752404  0.07592442  0.52505131    -0.06900
Cl459      Cl  0.24671149  0.00148579  0.99823720    -0.49900
C460        C  0.31328458  0.09260587  0.00057847     0.42600
H461        H  0.18621491  0.44827680  0.57676094     0.06800
N462        N  0.18947176  0.07844779  0.97448657    -0.46600
C463        C  0.38599366  0.34545592  0.99887827    -0.00100
C464        C  0.38620825  0.36638332  0.97556145    -0.12000
C465        C  0.36594178  0.39006058  0.97509191     0.02100
C466        C  0.34435150  0.39273800  0.99801932    -0.00200
C467        C  0.34486729  0.37248352  0.52190696    -0.11900
C468        C  0.36538871  0.34903276  0.52258149     0.02000
H469        H  0.40249305  0.36445720  0.95770641     0.15000
H470        H  0.32853961  0.37438312  0.53973559     0.15000
C471        C  0.36374557  0.32834184  0.54723315     0.36600
C472        C  0.36870887  0.41177522  0.95143322     0.36500
N473        N  0.36237244  0.31180713  0.56703367    -0.43700
N474        N  0.37112446  0.42919109  0.93251477    -0.43700
C475        C  0.33760297  0.11494611  0.99895766    -0.00100
C476        C  0.33954550  0.13274977  0.97320050    -0.12000
C477        C  0.36116691  0.15501295  0.97057501     0.02100
C478        C  0.38156384  0.16001385  0.99428047    -0.00200
C479        C  0.37962089  0.14216340  0.51995738    -0.11900
C480        C  0.35854035  0.11936464  0.52225281     0.02000
H481        H  0.32366551  0.12966220  0.95508976     0.15000
H482        H  0.39502837  0.14581870  0.53829358     0.15000
C483        C  0.36034725  0.09999041  0.54795084     0.36600
C484        C  0.36053427  0.17304810  0.94386230     0.36500
N485        N  0.36240873  0.08444894  0.56850752    -0.43700
N486        N  0.35964100  0.18724276  0.92225410    -0.43700
C487        C  0.11342329  0.34099064  0.99986257    -0.00100
C488        C  0.12590259  0.35162258  0.52665859    -0.12000
C489        C  0.14947499  0.37201533  0.52647566     0.02100
C490        C  0.16020809  0.38343572  0.99894118    -0.00200
C491        C  0.14817348  0.37231592  0.97222536    -0.11900
C492        C  0.12550041  0.35106422  0.97235512     0.02000
H493        H  0.11774483  0.34361344  0.54799365     0.15000
H494        H  0.15675809  0.37977863  0.95090044     0.15000
C495        C  0.11610662  0.33955324  0.94369004     0.36600
C496        C  0.16275662  0.37963099  0.55494115     0.36500
N497        N  0.10907489  0.33025277  0.92059020    -0.43700
N498        N  0.17349815  0.38529638  0.57782020    -0.43700
C499        C  0.14897259  0.10992663  0.99669852    -0.00100
C500        C  0.15082735  0.13242907  0.97505334    -0.12000
C501        C  0.13053580  0.15609050  0.97488653     0.02100
C502        C  0.10794734  0.15761944  0.99693289    -0.00200
C503        C  0.10534501  0.13444979  0.51778968    -0.11900
C504        C  0.12523083  0.11042697  0.51746516     0.02000
H505        H  0.16881215  0.13209696  0.95880526     0.15000
H506        H  0.08741731  0.13485079  0.53409467     0.15000
C507        C  0.11981708  0.08587380  0.53754079     0.36600
C508        C  0.13445276  0.17912869  0.95273759     0.36500
N509        N  0.11522737  0.06600397  0.55331257    -0.43700
N510        N  0.13768193  0.19750932  0.93491671    -0.43700
C511        C  0.38458067  0.50412474  0.84128486    -0.00100
C512        C  0.38418104  0.02744036  0.86206985    -0.12000
C513        C  0.36328806  0.02809851  0.88534526     0.02100
C514        C  0.34194888  0.50518659  0.88788115    -0.00200
C515        C  0.34303437  0.48134747  0.86775260    -0.11900
C516        C  0.36391849  0.48064076  0.84452594     0.02000
H517        H  0.40041162  0.04518362  0.86030546     0.15000
H518        H  0.32682262  0.46357638  0.86952012     0.15000
C519        C  0.36240136  0.45626654  0.82361096     0.36600
C520        C  0.36509862  0.05201489  0.90674174     0.36500
N521        N  0.36097404  0.43672931  0.80688389    -0.43700
N522        N  0.36679194  0.07122841  0.92382447    -0.43700
C523        C  0.10889341  0.49789490  0.84121427    -0.00100
C524        C  0.11516592  0.47225412  0.85797324    -0.12000
C525        C  0.13725123  0.47225851  0.88020891     0.02100
C526        C  0.15348486  0.99845033  0.88617695    -0.00200
C527        C  0.14688322  0.02411863  0.86967152    -0.11900
C528        C  0.12502089  0.02414644  0.84743328     0.02000
H529        H  0.10278689  0.45204006  0.85381826     0.15000
H530        H  0.15931656  0.04434516  0.87352048     0.15000
C531        C  0.12064274  0.05144410  0.83098498     0.36600
C532        C  0.14220645  0.44511018  0.89661382     0.36500
N533        N  0.11739209  0.07340690  0.81791778    -0.43700
N534        N  0.14575465  0.42305516  0.90940236    -0.43700
C535        C  0.14981635  0.99811754  0.60654189    -0.00100
C536        C  0.15004271  0.02057400  0.62823025    -0.12000
C537        C  0.12916625  0.02088779  0.65146211     0.02100
C538        C  0.10715850  0.99849498  0.65310336    -0.00200
C539        C  0.10619020  0.47665216  0.63073591    -0.11900
C540        C  0.12710711  0.47643138  0.60740308     0.02000
H541        H  0.16734476  0.03736560  0.62774357     0.15000
H542        H  0.08890257  0.45985697  0.63132091     0.15000
C543        C  0.12386093  0.45460622  0.58401360     0.36600
C544        C  0.13221674  0.04340798  0.67423957     0.36500
N545        N  0.12089956  0.43727096  0.56516080    -0.43700
N546        N  0.13482143  0.06136481  0.69255162    -0.43700
C547        C  0.38690441  0.00606991  0.65225176    -0.00100
C548        C  0.36791644  0.03064112  0.64900934    -0.12000
C549        C  0.34469065  0.03055256  0.62810071     0.02100
C550        C  0.34026129  0.50543003  0.60969174    -0.00200
C551        C  0.35995175  0.48127933  0.61223914    -0.11900
C552        C  0.38316261  0.48138538  0.63318327     0.02000
H553        H  0.37046244  0.04967576  0.66359108     0.15000
H554        H  0.35735529  0.46217268  0.59776844     0.15000
C555        C  0.40317970  0.45623659  0.63389238     0.36600
C556        C  0.32513927  0.05604517  0.62718389     0.36500
N557        N  0.41913965  0.43602258  0.63399961    -0.43700
N558        N  0.30955135  0.07653895  0.62655280    -0.43700
C559        C  0.50167608  0.11599026  0.83925899    -0.00100
C560        C  0.47707256  0.11806917  0.85866498    -0.12000
C561        C  0.47596273  0.13969012  0.88124879     0.02100
C562        C  0.99978419  0.15995557  0.88457393    -0.00200
C563        C  0.02422200  0.15795653  0.86505379    -0.11900
C564        C  0.02530190  0.13653772  0.84245860     0.02000
H565        H  0.45883757  0.10241034  0.85651131     0.12600
H566        H  0.04236790  0.17373934  0.86687073     0.15000
C567        C  0.05021700  0.13762655  0.82200132     0.36600
C568        C  0.45072370  0.13970273  0.90134400     0.36500
N569        N  0.07027358  0.13890839  0.80572468    -0.43700
N570        N  0.43048719  0.13940199  0.91743862    -0.43700
C571        C  0.49179973  0.38890722  0.84085830    -0.00100
C572        C  0.01417975  0.39084653  0.86269978    -0.12000
C573        C  0.01629755  0.36978480  0.88570786     0.02100
C574        C  0.49594005  0.34590968  0.88679159    -0.00200
C575        C  0.47322889  0.34429888  0.86514301    -0.11900
C576        C  0.47110800  0.36535290  0.84218014     0.02000
H577        H  0.02994004  0.40908757  0.86197008     0.15000
H578        H  0.45756795  0.32597417  0.86559474     0.15000
C579        C  0.44878451  0.36100472  0.81923412     0.36600
C580        C  0.03866009  0.37410118  0.90857736     0.36500
N581        N  0.43101897  0.35736861  0.80075311    -0.43700
N582        N  0.05646793  0.37795066  0.92696019    -0.43700
C583        C  0.49308591  0.34310503  0.61104859    -0.00100
C584        C  0.47202885  0.34164935  0.63422478    -0.12000
C585        C  0.47137937  0.36303440  0.65685245     0.02100
C586        C  0.99164939  0.38699610  0.65608584    -0.00200
C587        C  0.01279954  0.38848476  0.63294989    -0.11900
C588        C  0.01368562  0.36678494  0.61046743     0.02000
H589        H  0.45655599  0.32317943  0.63519774     0.15000
H590        H  0.02840650  0.40685674  0.63223322     0.15000
C591        C  0.03505563  0.36997748  0.58648481     0.36600
C592        C  0.45115864  0.35860341  0.68163022     0.36500
N593        N  0.05212592  0.37270142  0.56723525    -0.43700
N594        N  0.43517527  0.35480927  0.70161941    -0.43700
C595        C  0.00275604  0.11185065  0.65346950    -0.00100
C596        C  0.47950450  0.11073565  0.63238206    -0.12000
C597        C  0.47768953  0.13157041  0.60915987     0.02100
C598        C  0.99863829  0.15487899  0.60753386    -0.00200
C599        C  0.02251455  0.15527494  0.62792807    -0.11900
C600        C  0.02488833  0.13399296  0.65063429     0.02000
H601        H  0.46305220  0.09313867  0.63371641     0.15000
H602        H  0.03906314  0.17277619  0.62665775     0.15000
C603        C  0.04949103  0.13652112  0.67140274     0.36600
C604        C  0.45551610  0.12706587  0.58623020     0.36500
N605        N  0.06935910  0.13864572  0.68786598    -0.43700
N606        N  0.43804805  0.12267520  0.56767989    -0.43700
C607        C  0.00276900  0.59009586  0.17824778     0.42500
N608        N  0.48730897  0.56369539  0.21507164     0.01400
C609        C  0.07310692  0.97028805  0.30296328    -0.06500
H610        H  0.07504044  0.94776637  0.18608829     0.06900
C611        C  0.46540260  0.92393264  0.19343002    -0.06900
Co612      Co  0.03797575  0.53589616  0.24813076     0.74200
N613        N  0.05643598  0.98140221  0.21503783    -0.26000
Co614      Co  0.03169718  0.95934048  0.24763314     0.74100
C615        C  0.99138066  0.91037538  0.17920250     0.42600
N616        N  0.43467359  0.99188168  0.21447889     0.01000
N617        N  0.00612861  0.93862120  0.21476213     0.01100
N618        N  0.07582904  0.52031992  0.30208679    -0.46900
H619        H  0.05191987  0.57822206  0.18798494     0.06800
N620        N  0.05889329  0.51053369  0.21550631     0.01400
N621        N  0.00580851  0.93855580  0.28028468     0.01100
C622        C  0.49116669  0.91124125  0.31664074     0.42700
N623        N  0.43701125  0.52103426  0.21481395    -0.25500
C624        C  0.02759490  0.57780834  0.30234548    -0.06400
N625        N  0.47795613  0.58109828  0.19302455    -0.46600
N626        N  0.01553074  0.92090579  0.30194338    -0.46800
C627        C  0.50184536  0.59246702  0.31598541     0.42500
N628        N  0.05834038  0.51023217  0.28063312     0.01400
N629        N  0.43630801  0.52073481  0.28007226    -0.25500
N630        N  0.01665170  0.56078599  0.21553200    -0.26000
N631        N  0.43387355  0.99157003  0.27974425     0.01000
H632        H  0.41689135  0.55456302  0.30813687     0.06900
H633        H  0.44169071  0.92209576  0.30722652     0.06900
N634        N  0.05639499  0.98106802  0.28047107    -0.26100
N635        N  0.47677435  0.94104026  0.21506086    -0.25700
N636        N  0.48682179  0.56388931  0.28059611     0.01400
C637        C  0.08542820  0.49720203  0.17799875     0.42800
C638        C  0.42156852  0.53218230  0.19171730    -0.06900
N639        N  0.47651069  0.94108388  0.27998168    -0.25700
H640        H  0.44189690  0.92073590  0.18898252     0.06900
N641        N  0.07611072  0.52085777  0.19386687    -0.46900
H642        H  0.41922645  0.55547381  0.18638769     0.06900
C643        C  0.40643567  0.00513904  0.31648732     0.42600
C644        C  0.02838941  0.57652358  0.19305528    -0.06400
Co645      Co  0.46130464  0.54290732  0.24770134     0.73800
N646        N  0.41805125  0.98213814  0.19205942    -0.46600
C647        C  0.08603374  0.99654222  0.31724698     0.42900
N648        N  0.47729534  0.58259037  0.30141882    -0.46600
Co649      Co  0.45488809  0.96604275  0.24731527     0.73900
C650        C  0.46516592  0.92463746  0.30221073    -0.06900
C651        C  0.07234358  0.97089744  0.19189239    -0.06500
N652        N  0.01612159  0.56093925  0.28056049    -0.26000
N653        N  0.01586817  0.92041497  0.19362785    -0.46800
H654        H  0.07646307  0.94703987  0.30790379     0.06900
C655        C  0.41982846  0.53137537  0.30270499    -0.06900
Cl656      Cl  0.99645076  0.50105528  0.24773708    -0.49900
C657        C  0.40927692  0.50629948  0.17652029     0.42600
H658        H  0.05111224  0.58001028  0.30726795     0.06800
N659        N  0.41614715  0.98137003  0.30103365    -0.46600
C660        C  0.08703365  0.68301059  0.49883438     0.42500
N661        N  0.05952145  0.71989866  0.48628941     0.01400
C662        C  0.46698197  0.80399395  0.07642272    -0.06500
H663        H  0.44603979  0.68775775  0.07689690     0.06900
C664        C  0.41847632  0.69799384  0.46773602    -0.06900
Co665      Co  0.03331782  0.75098280  0.03913321     0.74200
N666        N  0.47915822  0.71712426  0.05824062    -0.26000
Co667      Co  0.45584241  0.74989036  0.03483150     0.74100
C668        C  0.40472010  0.68359221  0.49361016     0.42600
N669        N  0.48562598  0.71979882  0.43528211     0.01000
N670        N  0.43411098  0.71812436  0.00878121     0.01100
N671        N  0.01753912  0.80494315  0.07814324    -0.46900
H672        H  0.07782920  0.69041053  0.04904855     0.06800
N673        N  0.00858106  0.71783804  0.06006522     0.01400
N674        N  0.43396570  0.78279639  0.01028796     0.01100
C675        C  0.40701420  0.82006549  0.49746025     0.42700
N676        N  0.01503772  0.72041918  0.43692607    -0.25500
C677        C  0.07566687  0.80486740  0.02782236    -0.06400
N678        N  0.07687451  0.69880303  0.47524648    -0.46600
N679        N  0.41683605  0.80416945  0.02116102    -0.46800
C680        C  0.08884779  0.81885017  0.50126248     0.42500
N681        N  0.00765797  0.78292169  0.06115950     0.01400
N682        N  0.01432652  0.78516585  0.43811811    -0.25500
N683        N  0.05786390  0.71913530  0.01578681    -0.26000
N684        N  0.48494510  0.78471535  0.43630398     0.01000
H685        H  0.04781137  0.81330259  0.41831279     0.06900
H686        H  0.41650731  0.81233306  0.44733158     0.06900
N687        N  0.47819440  0.78196651  0.05977664    -0.26100
N688        N  0.43592395  0.71912402  0.47933691    -0.25700
N689        N  0.05884476  0.78434421  0.48750191     0.01400
C690        C  0.99625313  0.67933894  0.08546268     0.42800
C691        C  0.02611412  0.69842625  0.42016131    -0.06900
N692        N  0.43586146  0.78357395  0.48080631    -0.25700
H693        H  0.41550486  0.69405976  0.44410138     0.06900
N694        N  0.01962628  0.69590113  0.07639448    -0.46900
H695        H  0.04957281  0.69366447  0.41694591     0.06900
C696        C  0.49781305  0.82212111  0.40960072     0.42600
C697        C  0.07442123  0.69634795  0.02581316    -0.06400
Co698      Co  0.03737233  0.75251292  0.46178276     0.73800
N699        N  0.47563000  0.69819789  0.41783920    -0.46600
C700        C  0.49303668  0.81938545  0.08824249     0.42900
N701        N  0.07731334  0.80478277  0.47727118    -0.46600
Co702      Co  0.46020615  0.75177099  0.45741467     0.73900
C703        C  0.41964010  0.80647530  0.47062213    -0.06900
C704        C  0.46923039  0.69359124  0.07372773    -0.06500
N705        N  0.05758440  0.78373712  0.01698921    -0.26000
N706        N  0.41562773  0.69722407  0.01828527    -0.46800
H707        H  0.44352069  0.80864760  0.07978417     0.06900
C708        C  0.02455613  0.80804348  0.42189704    -0.06900
Cl709      Cl  0.49667707  0.75127856  0.49831863    -0.49900
C710        C  0.99995809  0.68357746  0.40767150     0.42600
H711        H  0.08002116  0.80875931  0.05130788     0.06800
N712        N  0.47417993  0.80618332  0.41915181    -0.46600
C713        C  0.31507869  0.00331032  0.08837563     0.42500
N714        N  0.27762335  0.51490182  0.06090116     0.01400
C715        C  0.19710273  0.91989466  0.47033111    -0.06500
H716        H  0.30963244  0.92296576  0.44707476     0.06900
C717        C  0.30172554  0.53150752  0.42195297    -0.06900
Co718      Co  0.24821198  0.96142214  0.03520626     0.74200
N719        N  0.28220893  0.94258035  0.48117068    -0.26000
Co720      Co  0.24881741  0.96471244  0.45799019     0.74100
C721        C  0.31771163  0.00572748  0.41033250     0.42600
N722        N  0.27696275  0.56469680  0.48669694     0.01000
N723        N  0.28048240  0.99096563  0.43652978     0.01100
N724        N  0.19764195  0.91885130  0.02092782    -0.46900
H725        H  0.30822556  0.95337927  0.07959032     0.06800
N726        N  0.28236305  0.94118987  0.01066707     0.01400
N727        N  0.21527689  0.98806911  0.43593523     0.01100
C728        C  0.17768220  0.50003009  0.40875388     0.42700
N729        N  0.27638033  0.56343257  0.01618719    -0.25500
C730        C  0.19064042  0.97159510  0.07339178    -0.06400
N731        N  0.29876904  0.52632904  0.07803571    -0.46600
N732        N  0.19387598  0.97680688  0.41892198    -0.46800
C733        C  0.17431195  0.49744549  0.08438894     0.42500
N734        N  0.21741181  0.93782336  0.01021107     0.01400
N735        N  0.21112052  0.56062373  0.01497227    -0.25500
N736        N  0.27901679  0.98575209  0.05947984    -0.26000
N737        N  0.21159849  0.56220117  0.48549573     0.01000
H738        H  0.18194095  0.57935982  0.04835135     0.06900
H739        H  0.18518866  0.54989759  0.41766746     0.06900
N740        N  0.21760313  0.93889838  0.48072060    -0.26100
N741        N  0.27924556  0.52014168  0.43799930    -0.25700
N742        N  0.21246752  0.51202906  0.05950009     0.01400
C743        C  0.32028600  0.91531484  0.49707795     0.42800
C744        C  0.29832259  0.58052453  0.02706908    -0.06900
N745        N  0.21431922  0.51728818  0.43724183    -0.25700
H746        H  0.30558516  0.55487528  0.41824408     0.06900
N747        N  0.30455878  0.92468010  0.02114485    -0.46900
H748        H  0.30254609  0.58440189  0.05056769     0.06900
C749        C  0.17297665  0.58739361  0.49813289     0.42600
C750        C  0.30201235  0.97630976  0.07610239    -0.06400
Co751      Co  0.24436575  0.53823244  0.03848465     0.73800
N752        N  0.29847554  0.58206307  0.47645080    -0.46600
C753        C  0.18378278  0.90658500  0.49717697     0.42900
N754        N  0.18945300  0.52167911  0.07530030    -0.46600
Co755      Co  0.24553653  0.54162775  0.46132842     0.73900
C756        C  0.19130574  0.52690143  0.42082063    -0.06900
C757        C  0.30515860  0.92682927  0.47052590    -0.06500
N758        N  0.21383362  0.98284132  0.05819059    -0.26000
N759        N  0.30297047  0.98140710  0.41992643    -0.46800
H760        H  0.19315072  0.91525715  0.44694698     0.06900
C761        C  0.18752259  0.57591199  0.02505751    -0.06900
Cl762      Cl  0.24670955  0.50148083  0.49823776    -0.49900
C763        C  0.31327935  0.59260371  0.50059050     0.42600
H764        H  0.18622157  0.94829332  0.07677158     0.06800
N765        N  0.18947131  0.57844942  0.47449168    -0.46600
C766        C  0.38599366  0.84546202  0.49888501    -0.00100
C767        C  0.38621777  0.86640030  0.47557822    -0.12000
C768        C  0.36595600  0.89008227  0.47511598     0.02100
C769        C  0.34435896  0.89275151  0.49803798    -0.00200
C770        C  0.34485962  0.87247549  0.02190292    -0.11900
C771        C  0.36538401  0.84902694  0.02257654     0.02000
H772        H  0.40250675  0.86447925  0.45772641     0.15000
H773        H  0.32852826  0.87436991  0.03972877     0.15000
C774        C  0.36373948  0.82833135  0.04722416     0.36600
C775        C  0.36873508  0.91181160  0.45147244     0.36500
N776        N  0.36236562  0.81179288  0.06702145    -0.43700
N777        N  0.37116004  0.92924063  0.43256760    -0.43700
C778        C  0.33759739  0.61494440  0.49896897    -0.00100
C779        C  0.33954214  0.63274371  0.47320887    -0.12000
C780        C  0.36116560  0.65500440  0.47057971     0.02100
C781        C  0.38156053  0.66000975  0.49428585    -0.00200
C782        C  0.37960514  0.64218114  0.01996634    -0.11900
C783        C  0.35852827  0.61937942  0.02226623     0.02000
H784        H  0.32366346  0.62965332  0.45509731     0.15000
H785        H  0.39500099  0.64585245  0.03830915     0.15000
C786        C  0.36033085  0.60002077  0.04797594     0.36600
C787        C  0.36053834  0.67303107  0.44386116     0.36500
N788        N  0.36239316  0.58449200  0.06854211    -0.43700
N789        N  0.35964939  0.68721823  0.42224779    -0.43700
C790        C  0.11341141  0.84100897  0.49986239    -0.00100
C791        C  0.12589674  0.85162984  0.02666337    -0.12000
C792        C  0.14946470  0.87202798  0.02648440     0.02100
C793        C  0.16020189  0.88344954  0.49894542    -0.00200
C794        C  0.14817180  0.87232668  0.47222855    -0.11900
C795        C  0.12549438  0.85107905  0.47235623     0.02000
H796        H  0.11773032  0.84362684  0.04799747     0.15000
H797        H  0.15676151  0.87978567  0.45090450     0.15000
C798        C  0.11609891  0.83957169  0.44369020     0.36600
C799        C  0.16272695  0.87966175  0.05495395     0.36500
N800        N  0.10906479  0.83027545  0.42058933    -0.43700
N801        N  0.17345120  0.88534272  0.07783718    -0.43700
C802        C  0.14897852  0.60993594  0.49670771    -0.00100
C803        C  0.15083841  0.63244020  0.47506465    -0.12000
C804        C  0.13055222  0.65610653  0.47489996     0.02100
C805        C  0.10796209  0.65763734  0.49694429    -0.00200
C806        C  0.10534116  0.63443992  0.01778030    -0.11900
C807        C  0.12522768  0.61041754  0.01746187     0.02000
H808        H  0.16882338  0.63210572  0.45881691     0.15000
H809        H  0.08740979  0.63484142  0.03408122     0.15000
C810        C  0.11981061  0.58586550  0.03753797     0.36600
C811        C  0.13447724  0.67914866  0.45275669     0.36500
N812        N  0.11521819  0.56599673  0.05331030    -0.43700
N813        N  0.13771337  0.69753321  0.43494124    -0.43700
C814        C  0.38461437  0.00411569  0.34131959    -0.00100
C815        C  0.38418440  0.52744885  0.36206970    -0.12000
C816        C  0.36329653  0.52810638  0.38535037     0.02100
C817        C  0.34197506  0.00518176  0.38790998    -0.00200
C818        C  0.34307629  0.98133194  0.36779536    -0.11900
C819        C  0.36396575  0.98062133  0.34457377     0.02000
H820        H  0.40040971  0.54519606  0.36029761     0.15000
H821        H  0.32687266  0.96355410  0.36956960     0.15000
C822        C  0.36246979  0.95622839  0.32367959     0.36600
C823        C  0.36510648  0.55202697  0.40674205     0.36500
N824        N  0.36106089  0.93667482  0.30697040    -0.43700
N825        N  0.36679989  0.57124386  0.42382092    -0.43700
C826        C  0.10886877  0.99787637  0.34123660    -0.00100
C827        C  0.11519322  0.97221865  0.35795041    -0.12000
C828        C  0.13728238  0.97222565  0.38018368     0.02100
C829        C  0.15349824  0.49844800  0.38616769    -0.00200
C830        C  0.14689366  0.52411760  0.36966559    -0.11900
C831        C  0.12502952  0.52414611  0.34742934     0.02000
H832        H  0.10285565  0.95198725  0.35375878     0.15000
H833        H  0.15932609  0.54434448  0.37351548     0.15000
C834        C  0.12065055  0.55144378  0.33098137     0.36600
C835        C  0.14229258  0.94505626  0.39653639     0.36500
N836        N  0.11739964  0.57340623  0.31791365    -0.43700
N837        N  0.14588467  0.92298351  0.40928151    -0.43700
C838        C  0.14982628  0.49809130  0.10655077    -0.00100
C839        C  0.15005065  0.52055218  0.12823448    -0.12000
C840        C  0.12917646  0.52086748  0.15146803     0.02100
C841        C  0.10717249  0.49847163  0.15311590    -0.00200
C842        C  0.10620160  0.97666157  0.13074407    -0.11900
C843        C  0.12711703  0.97644573  0.10740899     0.02000
H844        H  0.16734911  0.53734747  0.12774225     0.15000
H845        H  0.08892167  0.95985890  0.13133271     0.15000
C846        C  0.12387212  0.95462316  0.08401670     0.36600
C847        C  0.13222468  0.54339386  0.17423955     0.36500
N848        N  0.12091106  0.93729308  0.06515901    -0.43700
N849        N  0.13482770  0.56135590  0.19254663    -0.43700
C850        C  0.38692383  0.50604832  0.15223151    -0.00100
C851        C  0.36795981  0.53063446  0.14896282    -0.12000
C852        C  0.34473362  0.53054726  0.12805506     0.02100
C853        C  0.34026217  0.00544454  0.10969865    -0.00200
C854        C  0.35996833  0.98130523  0.11223269    -0.11900
C855        C  0.38317904  0.98141529  0.13317730     0.02000
H856        H  0.37052303  0.54968152  0.16352453     0.15000
H857        H  0.35738469  0.96220554  0.09774997     0.15000
C858        C  0.40321627  0.95628185  0.13387107     0.36600
C859        C  0.32520877  0.55605902  0.12711352     0.36500
N860        N  0.41919414  0.93608175  0.13396735    -0.43700
N861        N  0.30964367  0.57656932  0.12646235    -0.43700
C862        C  0.50167651  0.61599936  0.33925059    -0.00100
C863        C  0.47707894  0.61806893  0.35866532    -0.12000
C864        C  0.47597518  0.63968014  0.38125948     0.02100
C865        C  0.99979792  0.65994747  0.38458168    -0.00200
C866        C  0.02423487  0.65795316  0.36505997    -0.11900
C867        C  0.02531421  0.63653915  0.34245983     0.02000
H868        H  0.45884580  0.60240775  0.35651280     0.12600
H869        H  0.04238078  0.67373559  0.36688000     0.15000
C870        C  0.05023172  0.63762933  0.32200562     0.36600
C871        C  0.45075055  0.63967380  0.40137290     0.36500
N872        N  0.07029115  0.63891213  0.30573260    -0.43700
N873        N  0.43052792  0.63935708  0.41748478    -0.43700
C874        C  0.49179853  0.88889972  0.34084963    -0.00100
C875        C  0.01416105  0.89083814  0.36269373    -0.12000
C876        C  0.01627671  0.86977974  0.38570433     0.02100
C877        C  0.49593586  0.84590825  0.38679047    -0.00200
C878        C  0.47322039  0.84430005  0.36514619    -0.11900
C879        C  0.47109989  0.86535162  0.34218074     0.02000
H880        H  0.02992258  0.90907804  0.36196170     0.15000
H881        H  0.45755477  0.82597944  0.36560367     0.15000
C882        C  0.44876698  0.86100777  0.31924313     0.36600
C883        C  0.03863593  0.87410068  0.40857583     0.36500
N884        N  0.43099269  0.85737471  0.30076997    -0.43700
N885        N  0.05644044  0.87795429  0.42696093    -0.43700
C886        C  0.49307413  0.84310511  0.11104594    -0.00100
C887        C  0.47201868  0.84164893  0.13422387    -0.12000
C888        C  0.47136733  0.86303676  0.15684931     0.02100
C889        C  0.99164846  0.88699737  0.15606854    -0.00200
C890        C  0.01278994  0.88849086  0.13292556    -0.11900
C891        C  0.01367920  0.86678583  0.11044903     0.02000
H892        H  0.45654970  0.82317601  0.13520056     0.15000
H893        H  0.02838820  0.90686983  0.13219955     0.15000
C894        C  0.03504134  0.86998143  0.08646009     0.36600
C895        C  0.45115214  0.85860351  0.18163127     0.36500
N896        N  0.05210584  0.87270785  0.06720579    -0.43700
N897        N  0.43517382  0.85480650  0.20162399    -0.43700
C898        C  0.00276899  0.61182650  0.15344387    -0.00100
C899        C  0.47949570  0.61072116  0.13236864    -0.12000
C900        C  0.47767630  0.63155894  0.10914912     0.02100
C901        C  0.99865412  0.65485585  0.10750748    -0.00200
C902        C  0.02252796  0.65525245  0.12790450    -0.11900
C903        C  0.02490075  0.63396983  0.15061040     0.02000
H904        H  0.46303371  0.59313388  0.13371335     0.15000
H905        H  0.03907501  0.67275544  0.12663724     0.15000
C906        C  0.04950201  0.63649852  0.17138055     0.36600
C907        C  0.45548509  0.62706674  0.08623447     0.36500
N908        N  0.06936916  0.63862311  0.18784492    -0.43700
N909        N  0.43800181  0.62268408  0.06769667    -0.43700
C910        C  0.00275390  0.59009614  0.67824240     0.42500
N911        N  0.48730633  0.56369281  0.71506725     0.01400
C912        C  0.07311544  0.97029560  0.80296237    -0.06500
H913        H  0.07503659  0.94776762  0.68607667     0.06900
C914        C  0.46540217  0.92393606  0.69342617    -0.06900
Co915      Co  0.03796933  0.53590404  0.74812607     0.74200
N916        N  0.05644816  0.98140351  0.71503608    -0.26000
Co917      Co  0.03170955  0.95935026  0.74763433     0.74100
C918        C  0.99137697  0.91037635  0.67921186     0.42600
N919        N  0.43467125  0.99188063  0.71447744     0.01000
N920        N  0.00612916  0.93862927  0.71476634     0.01100
N921        N  0.07583172  0.52033193  0.80207915    -0.46900
H922        H  0.05190641  0.57823138  0.68797940     0.06800
N923        N  0.05888744  0.51054208  0.71550095     0.01400
N924        N  0.00581367  0.93857527  0.78028835     0.01100
C925        C  0.49117295  0.91124035  0.81663636     0.42700
N926        N  0.43701010  0.52103198  0.71481314    -0.25500
C927        C  0.02758446  0.57781802  0.80233930    -0.06400
N928        N  0.47795218  0.58109323  0.69301862    -0.46600
N929        N  0.01553687  0.92092002  0.80194273    -0.46800
C930        C  0.50184189  0.59246694  0.81598169     0.42500
N931        N  0.05833933  0.51024317  0.78062858     0.01400
N932        N  0.43630683  0.52073406  0.78006894    -0.25500
N933        N  0.01664100  0.56078983  0.71552711    -0.26000
N934        N  0.43387149  0.99156713  0.77974120     0.01000
H935        H  0.41687972  0.55456448  0.80812329     0.06900
H936        H  0.44169554  0.92209062  0.80722424     0.06900
N937        N  0.05640694  0.98107451  0.78046816    -0.26100
N938        N  0.47677433  0.94104194  0.71505785    -0.25700
N939        N  0.48682030  0.56388873  0.78059236     0.01400
C940        C  0.08541922  0.49721024  0.67799123     0.42800
C941        C  0.42156475  0.53218049  0.69171877    -0.06900
N942        N  0.47651291  0.94108296  0.77997864    -0.25700
H943        H  0.44189639  0.92074001  0.68897856     0.06900
N944        N  0.07610248  0.52086632  0.69385953    -0.46900
H945        H  0.41922116  0.55547204  0.68639043     0.06900
C946        C  0.40642279  0.00513697  0.81647480     0.42600
C947        C  0.02837625  0.57652809  0.69304979    -0.06400
Co948      Co  0.46130357  0.54290572  0.74769846     0.73800
N949        N  0.41804573  0.98213749  0.69206020    -0.46600
C950        C  0.08603998  0.99655093  0.81724425     0.42900
N951        N  0.47729256  0.58258875  0.80141537    -0.46600
Co952      Co  0.45488784  0.96604172  0.74731285     0.73900
C953        C  0.46517037  0.92463488  0.80220770    -0.06900
C954        C  0.07234534  0.97089840  0.69188455    -0.06500
N955        N  0.01611300  0.56094603  0.78055554    -0.26000
N956        N  0.01586550  0.92041744  0.69363487    -0.46800
H957        H  0.07646990  0.94704778  0.80790582     0.06900
C958        C  0.41982094  0.53137639  0.80269583    -0.06900
Cl959      Cl  0.99644732  0.50105927  0.74773570    -0.49900
C960        C  0.40927159  0.50629808  0.67652325     0.42600
H961        H  0.05110168  0.58002444  0.80726117     0.06800
N962        N  0.41613874  0.98136719  0.80102529    -0.46600
C963        C  0.08702985  0.68299778  0.99882561     0.42500
N964        N  0.05952376  0.71989092  0.98628308     0.01400
C965        C  0.46697697  0.80399521  0.57642335    -0.06500
H966        H  0.44604137  0.68775359  0.57689638     0.06900
C967        C  0.41847630  0.69799770  0.96773120    -0.06900
Co968      Co  0.03331083  0.75099084  0.53913651     0.74200
N969        N  0.47915805  0.71712485  0.55824368    -0.26000
Co970      Co  0.45583993  0.74988919  0.53483493     0.74100
C971        C  0.40471898  0.68359611  0.99360508     0.42600
N972        N  0.48562690  0.71979994  0.93527762     0.01000
N973        N  0.43411035  0.71812153  0.50878568     0.01100
N974        N  0.01752798  0.80495059  0.57814282    -0.46900
H975        H  0.07783089  0.69042475  0.54905687     0.06800
N976        N  0.00857641  0.71784541  0.56007087     0.01400
N977        N  0.43396075  0.78279355  0.51029147     0.01100
C978        C  0.40701916  0.82006804  0.99745593     0.42700
N979        N  0.01503995  0.72042167  0.93691912    -0.25500
C980        C  0.07565438  0.80487965  0.52782108    -0.06400
N981        N  0.07687331  0.69879320  0.97523863    -0.46600
N982        N  0.41683155  0.80416673  0.52116498    -0.46800
C983        C  0.08886201  0.81883810  0.00126496     0.42500
N984        N  0.00764798  0.78292830  0.56115981     0.01400
N985        N  0.01433799  0.78516831  0.93811776    -0.25500
N986        N  0.05786121  0.71914442  0.51579313    -0.26000
N987        N  0.48495080  0.78471644  0.93630051     0.01000
H988        H  0.04782623  0.81330174  0.91831282     0.06900
H989        H  0.41651258  0.81233477  0.94732749     0.06900
N990        N  0.47819026  0.78196710  0.55977877    -0.26100
N991        N  0.43592486  0.71912708  0.97933248    -0.25700
N992        N  0.05885586  0.78433625  0.98750136     0.01400
C993        C  0.99624958  0.67934550  0.58546639     0.42800
C994        C  0.02611230  0.69842902  0.92015124    -0.06900
N995        N  0.43586679  0.78357674  0.98080282    -0.25700
H996        H  0.41550575  0.69406401  0.94409655     0.06900
N997        N  0.01962252  0.69590928  0.57640069    -0.46900
H998        H  0.04957023  0.69366392  0.91693391     0.06900
C999        C  0.49782155  0.82212036  0.90959597     0.42600
C1000       C  0.07442217  0.69636020  0.52582106    -0.06400
Co1001     Co  0.03737929  0.75251010  0.96177918     0.73800
N1002       N  0.47562926  0.69820009  0.91783429    -0.46600
C1003       C  0.49303131  0.81938860  0.58824143     0.42900
N1004       N  0.07732652  0.80477370  0.97727240    -0.46600
Co1005     Co  0.46020942  0.75177307  0.95741083     0.73900
C1006       C  0.41964564  0.80647787  0.97061821    -0.06900
C1007       C  0.46923149  0.69359014  0.57372886    -0.06500
N1008       N  0.05757392  0.78374668  0.51698983    -0.26000
N1009       N  0.41562811  0.69722061  0.51829027    -0.46800
H1010       H  0.44351565  0.80864829  0.57978447     0.06900
C1011       C  0.02457037  0.80804556  0.92189761    -0.06900
Cl1012     Cl  0.49667979  0.75127792  0.99831515    -0.49900
C1013       C  0.99995334  0.68358551  0.90766111     0.42600
H1014       H  0.08000887  0.80877330  0.55130630     0.06800
N1015       N  0.47418728  0.80618429  0.91914718    -0.46600
C1016       C  0.31506708  0.00331151  0.58838338     0.42500
N1017       N  0.27761950  0.51490676  0.56090390     0.01400
C1018       C  0.19709975  0.91989621  0.97033544    -0.06500
H1019       H  0.30962285  0.92295975  0.94706704     0.06900
C1020       C  0.30171561  0.53150635  0.92194329    -0.06900
Co1021     Co  0.24820751  0.96142265  0.53520678     0.74200
N1022       N  0.28220563  0.94257835  0.98116575    -0.26000
Co1023     Co  0.24881212  0.96471210  0.95798884     0.74100
C1024       C  0.31769594  0.00572458  0.91031492     0.42600
N1025       N  0.27696528  0.56469299  0.98669628     0.01000
N1026       N  0.28047494  0.99096326  0.93652313     0.01100
N1027       N  0.19763825  0.91885266  0.52092336    -0.46900
H1028       H  0.30821492  0.95338055  0.57959782     0.06800
N1029       N  0.28236274  0.94119120  0.51067189     0.01400
N1030       N  0.21526968  0.98807057  0.93593780     0.01100
C1031       C  0.17767912  0.50003555  0.90875177     0.42700
N1032       N  0.27637784  0.56343618  0.51618791    -0.25500
C1033       C  0.19063080  0.97159549  0.57338524    -0.06400
N1034       N  0.29876415  0.52633423  0.57803966    -0.46600
N1035       N  0.19386718  0.97681013  0.91892528    -0.46800
C1036       C  0.17430661  0.49744981  0.58438534     0.42500
N1037       N  0.21741068  0.93782296  0.51020823     0.01400
N1038       N  0.21111869  0.56062691  0.51497082    -0.25500
N1039       N  0.27900882  0.98575332  0.55948365    -0.26000
N1040       N  0.21160067  0.56219836  0.98549723     0.01000
H1041       H  0.18194348  0.57936723  0.54835070     0.06900
H1042       H  0.18518998  0.54990196  0.91766198     0.06900
N1043       N  0.21760047  0.93889995  0.98072344    -0.26100
N1044       N  0.27924076  0.52013958  0.93799548    -0.25700
N1045       N  0.21246392  0.51203273  0.55949892     0.01400
C1046       C  0.32028193  0.91530948  0.99706939     0.42800
C1047       C  0.29832054  0.58052748  0.52706970    -0.06900
N1048       N  0.21431600  0.51728975  0.93724154    -0.25700
H1049       H  0.30557297  0.55487415  0.91823306     0.06900
N1050       N  0.30455886  0.92468314  0.52115188    -0.46900
H1051       H  0.30254529  0.58440460  0.55056845     0.06900
C1052       C  0.17297575  0.58738577  0.99813282     0.42600
C1053       C  0.30200220  0.97631096  0.57610898    -0.06400
Co1054     Co  0.24436293  0.53823619  0.53848478     0.73800
N1055       N  0.29847791  0.58205981  0.97645035    -0.46600
C1056       C  0.18378445  0.90658431  0.99718226     0.42900
N1057       N  0.18944842  0.52168314  0.57529745    -0.46600
Co1058     Co  0.24553617  0.54162587  0.96132823     0.73900
C1059       C  0.19130471  0.52690537  0.92081827    -0.06900
C1060       C  0.30515246  0.92682465  0.97051867    -0.06500
N1061       N  0.21382601  0.98284152  0.55818690    -0.26000
N1062       N  0.30295712  0.98140411  0.91991210    -0.46800
H1063       H  0.19314542  0.91525969  0.94695140     0.06900
C1064       C  0.18752295  0.57591781  0.52505677    -0.06900
Cl1065     Cl  0.24670950  0.50147798  0.99823633    -0.49900
C1066       C  0.31328165  0.59260132  0.00059000     0.42600
H1067       H  0.18621078  0.94829393  0.57676449     0.06800
N1068       N  0.18947190  0.57844339  0.97449245    -0.46600
C1069       C  0.38599552  0.84546205  0.99887911    -0.00100
C1070       C  0.38621549  0.86639737  0.97556953    -0.12000
C1071       C  0.36595057  0.89007654  0.97510518     0.02100
C1072       C  0.34435513  0.89274648  0.99802851    -0.00200
C1073       C  0.34486001  0.87247794  0.52191012    -0.11900
C1074       C  0.36538168  0.84902698  0.52258204     0.02000
H1075       H  0.40250361  0.86447620  0.95771697     0.15000
H1076       H  0.32852763  0.87437194  0.53973513     0.15000
C1077       C  0.36373365  0.82832891  0.54722725     0.36600
C1078       C  0.36872479  0.91180245  0.95145789     0.36500
N1079       N  0.36235701  0.81178851  0.56702269    -0.43700
N1080       N  0.37114560  0.92922872  0.93254993    -0.43700
C1081       C  0.33759895  0.61494383  0.99896806    -0.00100
C1082       C  0.33955023  0.63273436  0.97320212    -0.12000
C1083       C  0.36117266  0.65499616  0.97057120     0.02100
C1084       C  0.38156027  0.66001207  0.99428149    -0.00200
C1085       C  0.37961207  0.64216985  0.51996491    -0.11900
C1086       C  0.35853390  0.61936916  0.52226253     0.02000
H1087       H  0.32367759  0.62963611  0.95508674     0.15000
H1088       H  0.39501401  0.64583305  0.53830423     0.15000
C1089       C  0.36034177  0.59999968  0.54796376     0.36600
C1090       C  0.36055161  0.67301244  0.94384550     0.36500
N1091       N  0.36240701  0.58446143  0.56852238    -0.43700
N1092       N  0.35966707  0.68719080  0.92222607    -0.43700
C1093       C  0.11342476  0.84099748  0.99986648    -0.00100
C1094       C  0.12588522  0.85164047  0.52665869    -0.12000
C1095       C  0.14945607  0.87203528  0.52647901     0.02100
C1096       C  0.16020855  0.88344442  0.99895103    -0.00200
C1097       C  0.14818165  0.87231919  0.97223383    -0.11900
C1098       C  0.12550766  0.85106847  0.97236078     0.02000
H1099       H  0.11771839  0.84363881  0.54799304     0.15000
H1100       H  0.15677105  0.87977877  0.95090988     0.15000
C1101       C  0.11611546  0.83955949  0.94369434     0.36600
C1102       C  0.16271922  0.87966757  0.55494850     0.36500
N1103       N  0.10908408  0.83026214  0.92059311    -0.43700
N1104       N  0.17344409  0.88534716  0.57783177    -0.43700
C1105       C  0.14897586  0.60992534  0.99670469    -0.00100
C1106       C  0.15083556  0.63242795  0.97505993    -0.12000
C1107       C  0.13054765  0.65609247  0.97489182     0.02100
C1108       C  0.10795661  0.65762351  0.99693512    -0.00200
C1109       C  0.10534751  0.63445337  0.51778900    -0.11900
C1110       C  0.12523262  0.61042978  0.51746784     0.02000
H1111       H  0.16882169  0.63209370  0.95881347     0.15000
H1112       H  0.08741749  0.63485517  0.53409132     0.15000
C1113       C  0.11981631  0.58587847  0.53754505     0.36600
C1114       C  0.13447189  0.67913229  0.95274597     0.36500
N1115       N  0.11522456  0.56601065  0.55331881    -0.43700
N1116       N  0.13770765  0.69751450  0.93492798    -0.43700
C1117       C  0.38459521  0.00411534  0.84130040    -0.00100
C1118       C  0.38417066  0.52744817  0.86205611    -0.12000
C1119       C  0.36328128  0.52810542  0.88533490     0.02100
C1120       C  0.34195480  0.00518028  0.88788837    -0.00200
C1121       C  0.34304625  0.98133808  0.86776394    -0.11900
C1122       C  0.36393583  0.98062892  0.84454233     0.02000
H1123       H  0.40040191  0.54519067  0.86029057     0.15000
H1124       H  0.32683552  0.96356604  0.86953104     0.15000
C1125       C  0.36242876  0.95624800  0.82363458     0.36600
C1126       C  0.36509400  0.55202250  0.90673036     0.36500
N1127       N  0.36101063  0.93670481  0.80691381    -0.43700
N1128       N  0.36678884  0.57123735  0.92381141    -0.43700
C1129       C  0.10887422  0.99788502  0.84123210    -0.00100
C1130       C  0.11517555  0.97223469  0.85796555    -0.12000
C1131       C  0.13726087  0.97224137  0.88020181     0.02100
C1132       C  0.15350170  0.49845630  0.88615925    -0.00200
C1133       C  0.14693417  0.52411416  0.86962369    -0.11900
C1134       C  0.12507413  0.52414277  0.84738287     0.02000
H1135       H  0.10282117  0.95201035  0.85378850     0.15000
H1136       H  0.15939328  0.54432927  0.87345142     0.15000
C1137       C  0.12073510  0.55142299  0.83089483     0.36600
C1138       C  0.14224491  0.94508199  0.89657932     0.36500
N1139       N  0.11751456  0.57337051  0.81779399    -0.43700
N1140       N  0.14581575  0.92301791  0.90934566    -0.43700
C1141       C  0.14982093  0.49809626  0.60654699    -0.00100
C1142       C  0.15005115  0.52055187  0.62823625    -0.12000
C1143       C  0.12917675  0.52086708  0.65146959     0.02100
C1144       C  0.10716479  0.49847871  0.65310969    -0.00200
C1145       C  0.10618587  0.97666993  0.63072797    -0.11900
C1146       C  0.12710242  0.97645298  0.60739483     0.02000
H1147       H  0.16735506  0.53734171  0.62774923     0.15000
H1148       H  0.08889959  0.95987336  0.63131147     0.15000
C1149       C  0.12385404  0.95463457  0.58399937     0.36600
C1150       C  0.13223466  0.54338241  0.67425095     0.36500
N1151       N  0.12089059  0.93730668  0.56514005    -0.43700
N1152       N  0.13484591  0.56133451  0.69256678    -0.43700
C1153       C  0.38691660  0.50604846  0.65223675    -0.00100
C1154       C  0.36794909  0.53063283  0.64897416    -0.12000
C1155       C  0.34472347  0.53054763  0.62806584     0.02100
C1156       C  0.34024980  0.00544540  0.60970679    -0.00200
C1157       C  0.35995853  0.98130785  0.61223679    -0.11900
C1158       C  0.38317018  0.98141784  0.63318008     0.02000
H1159       H  0.37050991  0.54967693  0.66354028     0.15000
H1160       H  0.35737678  0.96221004  0.59775118     0.15000
C1161       C  0.40321163  0.95628760  0.63386835     0.36600
C1162       C  0.32519600  0.55605759  0.62712842     0.36500
N1163       N  0.41919329  0.93609044  0.63396042    -0.43700
N1164       N  0.30962874  0.57656638  0.62648048    -0.43700
C1165       C  0.50167173  0.61600050  0.83924530    -0.00100
C1166       C  0.47707763  0.61806602  0.85866488    -0.12000
C1167       C  0.47597388  0.63967868  0.88125773     0.02100
C1168       C  0.99978820  0.65995835  0.88456903    -0.00200
C1169       C  0.02421860  0.65797009  0.86503866    -0.11900
C1170       C  0.02529420  0.63655725  0.84243747     0.02000
H1171       H  0.45884709  0.60240129  0.85651655     0.12600
H1172       H  0.04236134  0.67375703  0.86685239     0.15000
C1173       C  0.05019946  0.63765729  0.82196878     0.36600
C1174       C  0.45075107  0.63967162  0.90137347     0.36500
N1175       N  0.07024771  0.63894783  0.80568256    -0.43700
N1176       N  0.43052945  0.63935493  0.91748662    -0.43700
C1177       C  0.49180770  0.88889712  0.84084331    -0.00100
C1178       C  0.01417435  0.89084545  0.86269358    -0.12000
C1179       C  0.01629274  0.86978567  0.88570372     0.02100
C1180       C  0.49594625  0.84590547  0.88678358    -0.00200
C1181       C  0.47323506  0.84429290  0.86513513    -0.11900
C1182       C  0.47111469  0.86534411  0.84216940     0.02000
H1183       H  0.02993357  0.90908719  0.86196268     0.15000
H1184       H  0.45757298  0.82596929  0.86558969     0.15000
C1185       C  0.44878905  0.86099492  0.81922572     0.36600
C1186       C  0.03865342  0.87410564  0.90857448     0.36500
N1187       N  0.43102135  0.85735762  0.80074706    -0.43700
N1188       N  0.05645942  0.87795748  0.92695863    -0.43700
C1189       C  0.49306886  0.84310934  0.61104305    -0.00100
C1190       C  0.47201218  0.84165552  0.63421985    -0.12000
C1191       C  0.47136296  0.86304289  0.65684545     0.02100
C1192       C  0.99164276  0.88699957  0.65607464    -0.00200
C1193       C  0.01278927  0.88848865  0.63293558    -0.11900
C1194       C  0.01367646  0.86678554  0.61045659     0.02000
H1195       H  0.45654134  0.82318401  0.63519631     0.15000
H1196       H  0.02839388  0.90686253  0.63221491     0.15000
C1197       C  0.03504689  0.86997513  0.58647401     0.36600
C1198       C  0.45114861  0.85861023  0.68162824     0.36500
N1199       N  0.05211833  0.87269594  0.56722504    -0.43700
N1200       N  0.43517136  0.85481361  0.70162191    -0.43700
C1201       C  0.00275376  0.61183186  0.65344407    -0.00100
C1202       C  0.47950217  0.61071065  0.63235297    -0.12000
C1203       C  0.47768637  0.63155016  0.60913457     0.02100
C1204       C  0.99864823  0.65486325  0.60751080    -0.00200
C1205       C  0.02250486  0.65527368  0.62792712    -0.11900
C1206       C  0.02487298  0.63398989  0.65063189     0.02000
H1207       H  0.46304706  0.59311633  0.63368748     0.15000
H1208       H  0.03904118  0.67278774  0.62667517     0.15000
C1209       C  0.04945520  0.63653109  0.67142315     0.36600
C1210       C  0.45551149  0.62705086  0.58620521     0.36500
N1211       N  0.06930662  0.63866467  0.68790534    -0.43700
N1212       N  0.43804330  0.62266345  0.56765419    -0.43700
C1213       C  0.50267863  0.09010924  0.17826092     0.42500
N1214       N  0.98737277  0.06371580  0.21508064     0.01400
C1215       C  0.57314757  0.47034346  0.30292295    -0.06500
H1216       H  0.57500980  0.44778034  0.18604274     0.06900
C1217       C  0.96542868  0.42394067  0.19340886    -0.06900
Co1218     Co  0.53794625  0.03592669  0.24809933     0.74200
N1219       N  0.55641562  0.48141985  0.21499481    -0.26000
Co1220     Co  0.53171765  0.45935490  0.24761801     0.74100
C1221       C  0.49136299  0.41036110  0.17922907     0.42600
N1222       N  0.93469680  0.49189591  0.21440192     0.01000
N1223       N  0.50612914  0.43861556  0.21477408     0.01100
N1224       N  0.57583591  0.02036109  0.30203412    -0.46900
H1225       H  0.55183938  0.07825582  0.18795525     0.06800
N1226       N  0.55884170  0.01056811  0.21544623     0.01400
N1227       N  0.50586909  0.43855909  0.28029499     0.01100
C1228       C  0.99107478  0.41127466  0.31665126     0.42700
N1229       N  0.93706138  0.02106706  0.21473980    -0.25500
C1230       C  0.52760734  0.07786146  0.30232145    -0.06400
N1231       N  0.97804428  0.08112877  0.19303306    -0.46600
N1232       N  0.51560958  0.42090256  0.30194142    -0.46800
C1233       C  0.00185113  0.09242171  0.31602844     0.42500
N1234       N  0.55835270  0.01026370  0.28057973     0.01400
N1235       N  0.93627695  0.02076072  0.28000727    -0.25500
N1236       N  0.51659619  0.06080324  0.21552420    -0.26000
N1237       N  0.93381104  0.49160010  0.27966790     0.01000
H1238       H  0.91683960  0.05459725  0.30804967     0.06900
H1239       H  0.94160592  0.42212564  0.30718831     0.06900
N1240       N  0.55642849  0.48110907  0.28043003    -0.26100
N1241       N  0.97678380  0.44105224  0.21504580    -0.25700
N1242       N  0.98682540  0.06388427  0.28060287     0.01400
C1243       C  0.58535324  0.99724799  0.17791156     0.42800
C1244       C  0.92167518  0.03221523  0.19160269    -0.06900
N1245       N  0.97645067  0.44111325  0.27996944    -0.25700
H1246       H  0.94192630  0.42074315  0.18894671     0.06900
N1247       N  0.57604161  0.02089858  0.19379350    -0.46900
H1248       H  0.91936394  0.05550602  0.18625751     0.06900
C1249       C  0.90631637  0.50518763  0.31635845     0.42600
C1250       C  0.52831313  0.07654282  0.19304153    -0.06400
Co1251     Co  0.96132483  0.04292706  0.24767058     0.73800
N1252       N  0.91812639  0.48214396  0.19194850    -0.46600
C1253       C  0.58606445  0.49660727  0.31719431     0.42900
N1254       N  0.97730172  0.08258354  0.30142959    -0.46600
Co1255     Co  0.95486315  0.46607558  0.24727045     0.73900
C1256       C  0.96508548  0.42466826  0.30219271    -0.06900
C1257       C  0.57230723  0.47091250  0.19183948    -0.06500
N1258       N  0.51613037  0.06097335  0.28055153    -0.26000
N1259       N  0.51585820  0.42040979  0.19363491    -0.46800
H1260       H  0.57651012  0.44709873  0.30787657     0.06900
C1261       C  0.91977140  0.03140885  0.30261804    -0.06900
Cl1262     Cl  0.49642480  0.00104718  0.24777345    -0.49900
C1263       C  0.90940175  0.00633297  0.17638124     0.42600
H1264       H  0.55112694  0.08009809  0.30722200     0.06800
N1265       N  0.91604220  0.48141008  0.30092676    -0.46600
C1266       C  0.58705046  0.18303530  0.49889840     0.42500
N1267       N  0.55950962  0.21988947  0.48632506     0.01400
C1268       C  0.96701844  0.30399127  0.07642641    -0.06500
H1269       H  0.94605066  0.18777427  0.07690763     0.06900
C1270       C  0.91845956  0.19803662  0.46771998    -0.06900
Co1271     Co  0.53329931  0.25099411  0.03915483     0.74200
N1272       N  0.97916954  0.21712100  0.05822460    -0.26000
Co1273     Co  0.95585582  0.24990079  0.03482344     0.74100
C1274       C  0.90469264  0.18364072  0.49359170     0.42600
N1275       N  0.98563011  0.21982719  0.43526232     0.01000
N1276       N  0.93411104  0.21814700  0.00876608     0.01100
N1277       N  0.51751315  0.30495723  0.07814759    -0.46900
H1278       H  0.57784237  0.19046803  0.04911112     0.06800
N1279       N  0.50856643  0.21785416  0.06010011     0.01400
N1280       N  0.93397932  0.28281907  0.01028530     0.01100
C1281       C  0.90701601  0.32007606  0.49744065     0.42700
N1282       N  0.51503131  0.22039272  0.43695045    -0.25500
C1283       C  0.57563906  0.30488069  0.02781609    -0.06400
N1284       N  0.57687999  0.19880094  0.47529731    -0.46600
N1285       N  0.91683913  0.30418796  0.02115322    -0.46800
C1286       C  0.58882717  0.31884506  0.50124944     0.42500
N1287       N  0.50763524  0.28293354  0.06116609     0.01400
N1288       N  0.51432709  0.28513554  0.43812653    -0.25500
N1289       N  0.55785059  0.21914604  0.01582654    -0.26000
N1290       N  0.98494622  0.28473942  0.43630269     0.01000
H1291       H  0.54783066  0.31324911  0.41832464     0.06900
H1292       H  0.91651028  0.31233172  0.44731667     0.06900
N1293       N  0.97822251  0.28196413  0.05977390    -0.26100
N1294       N  0.93592596  0.21914940  0.47932460    -0.25700
N1295       N  0.55882904  0.28433054  0.48750805     0.01400
C1296       C  0.49623181  0.17936722  0.08550656     0.42800
C1297       C  0.52610677  0.19839947  0.42018539    -0.06900
N1298       N  0.93587493  0.28359190  0.48080102    -0.25700
H1299       H  0.91548010  0.19411718  0.44408467     0.06900
N1300       N  0.51960902  0.19592722  0.07644518    -0.46900
H1301       H  0.54956483  0.19363597  0.41696632     0.06900
C1302       C  0.99778843  0.32215830  0.40960882     0.42600
C1303       C  0.57442544  0.19638113  0.02587086    -0.06400
Co1304     Co  0.53736340  0.25249033  0.46180164     0.73800
N1305       N  0.97563475  0.19822571  0.41781960    -0.46600
C1306       C  0.99307849  0.31937291  0.08824751     0.42900
N1307       N  0.57729438  0.30476552  0.47726610    -0.46600
Co1308     Co  0.96021360  0.25179270  0.45740655     0.73900
C1309       C  0.91964811  0.30648458  0.47060930    -0.06900
C1310       C  0.96924248  0.19359314  0.07372244    -0.06500
N1311       N  0.55756063  0.28374143  0.01699519    -0.26000
N1312       N  0.91561057  0.19725978  0.01826479    -0.46800
H1313       H  0.94355885  0.30865161  0.07979043     0.06900
C1314       C  0.52457142  0.30800420  0.42190481    -0.06900
Cl1315     Cl  0.99668886  0.25129082  0.49830585    -0.49900
C1316       C  0.49994978  0.18355638  0.40769360     0.42600
H1317       H  0.57999296  0.30878552  0.05129944     0.06800
N1318       N  0.97416725  0.30620637  0.41915954    -0.46600
C1319       C  0.81513951  0.50325352  0.08828468     0.42500
N1320       N  0.77765287  0.01487475  0.06086328     0.01400
C1321       C  0.69704572  0.41991799  0.47028354    -0.06500
H1322       H  0.80957535  0.42295137  0.44699149     0.06900
C1323       C  0.80166181  0.03152720  0.42188916    -0.06900
Co1324     Co  0.74819299  0.46139605  0.03516466     0.74200
N1325       N  0.78216335  0.44256774  0.48109969    -0.26000
Co1326     Co  0.74876672  0.46472989  0.45794565     0.74100
C1327       C  0.81761813  0.50575158  0.41022973     0.42600
N1328       N  0.77697377  0.06469482  0.48668927     0.01000
N1329       N  0.78042564  0.49098451  0.43647518     0.01100
N1330       N  0.69760665  0.41884956  0.02088056    -0.46900
H1331       H  0.80826499  0.45332206  0.07949326     0.06800
N1332       N  0.78232156  0.44116522  0.01060087     0.01400
N1333       N  0.71521952  0.48811669  0.43593248     0.01100
C1334       C  0.67758389  0.00010195  0.40881205     0.42700
N1335       N  0.77640028  0.06342356  0.01617636    -0.25500
C1336       C  0.69061710  0.47156952  0.07334737    -0.06400
N1337       N  0.79882755  0.02630024  0.07796096    -0.46600
N1338       N  0.69379897  0.47687141  0.41893345    -0.46800
C1339       C  0.67430150  0.99745844  0.08435144     0.42500
N1340       N  0.71737496  0.43782369  0.01016647     0.01400
N1341       N  0.71114923  0.06063987  0.01500582    -0.25500
N1342       N  0.77902478  0.48570152  0.05943982    -0.26000
N1343       N  0.71160894  0.06222907  0.48553218     0.01000
H1344       H  0.68202580  0.07939509  0.04842035     0.06900
H1345       H  0.68511526  0.04996273  0.41773087     0.06900
N1346       N  0.71755497  0.43891256  0.48067457    -0.26100
N1347       N  0.77919825  0.02016126  0.43795907    -0.25700
N1348       N  0.71248935  0.01202660  0.05949971     0.01400
C1349       C  0.82022519  0.41526966  0.49699205     0.42800
C1350       C  0.79833848  0.08052185  0.02705500    -0.06900
N1351       N  0.71426648  0.01733740  0.43725624    -0.25700
H1352       H  0.80552838  0.05489513  0.41818623     0.06900
N1353       N  0.80450654  0.42463792  0.02106977    -0.46900
H1354       H  0.80256221  0.08439901  0.05055343     0.06900
C1355       C  0.67302212  0.08744886  0.49821566     0.42600
C1356       C  0.80204463  0.47625379  0.07602909    -0.06400
Co1357     Co  0.74439210  0.03822326  0.03848120     0.73800
N1358       N  0.79847573  0.08207450  0.47644253    -0.46600
C1359       C  0.68373825  0.40659505  0.49712891     0.42900
N1360       N  0.68946725  0.02168460  0.07528410    -0.46600
Co1361     Co  0.74551781  0.04165124  0.46132886     0.73900
C1362       C  0.69123337  0.02696458  0.42086853    -0.06900
C1363       C  0.80510354  0.42680698  0.47044463    -0.06500
N1364       N  0.71382806  0.48281337  0.05816951    -0.26000
N1365       N  0.80288174  0.48142909  0.41982557    -0.46800
H1366       H  0.69308037  0.41529369  0.44689829     0.06900
C1367       C  0.68757732  0.07594655  0.02511953    -0.06900
Cl1368     Cl  0.74669782  0.00148484  0.49821586    -0.49900
C1369       C  0.81328594  0.09261131  0.50058123     0.42600
H1370       H  0.68617675  0.44826857  0.07670033     0.06800
N1371       N  0.68948625  0.07849972  0.47455496    -0.46600
C1372       C  0.88596905  0.34545148  0.49884335    -0.00100
C1373       C  0.88620224  0.36639491  0.47553994    -0.12000
C1374       C  0.86591801  0.39005805  0.47505630     0.02100
C1375       C  0.84429381  0.39270371  0.49795354    -0.00200
C1376       C  0.84477499  0.37241694  0.02181662    -0.11900
C1377       C  0.86531864  0.34898587  0.02250992     0.02000
H1378       H  0.90251668  0.36449343  0.45770936     0.15000
H1379       H  0.82841720  0.37429011  0.03962041     0.15000
C1380       C  0.86365323  0.32827273  0.04714088     0.36600
C1381       C  0.86870318  0.41179752  0.45142302     0.36500
N1382       N  0.86226197  0.31171941  0.06692421    -0.43700
N1383       N  0.87113084  0.42923743  0.43252878    -0.43700
C1384       C  0.83758989  0.11496980  0.49896043    -0.00100
C1385       C  0.83955047  0.13274214  0.47318210    -0.12000
C1386       C  0.86116629  0.15501061  0.47054719     0.02100
C1387       C  0.88153391  0.16005619  0.49426880    -0.00200
C1388       C  0.87955943  0.14225527  0.01995674    -0.11900
C1389       C  0.85849443  0.11944478  0.02226082     0.02000
H1390       H  0.82369434  0.12962028  0.45505651     0.15000
H1391       H  0.89494227  0.14594734  0.03830630     0.15000
C1392       C  0.86030196  0.10010738  0.04798435     0.36600
C1393       C  0.86056446  0.17299377  0.44379877     0.36500
N1394       N  0.86237959  0.08459745  0.06856266    -0.43700
N1395       N  0.85969395  0.18714105  0.42215808    -0.43700
C1396       C  0.61339024  0.34100101  0.49983651    -0.00100
C1397       C  0.62583886  0.35166669  0.02663131    -0.12000
C1398       C  0.64940666  0.37206252  0.02644541     0.02100
C1399       C  0.66016797  0.38345097  0.49890163    -0.00200
C1400       C  0.64816740  0.37228797  0.47218841    -0.11900
C1401       C  0.62550078  0.35102851  0.47232623     0.02000
H1402       H  0.61765419  0.34369218  0.04796929     0.15000
H1403       H  0.65678013  0.37971628  0.45086178     0.15000
C1404       C  0.61615640  0.33945257  0.44367140     0.36600
C1405       C  0.66265770  0.37971308  0.05491523     0.36500
N1406       N  0.60916298  0.33009700  0.42058255    -0.43700
N1407       N  0.67337523  0.38540209  0.07779946    -0.43700
C1408       C  0.64903278  0.10999867  0.49681577    -0.00100
C1409       C  0.65086387  0.13247769  0.47514346    -0.12000
C1410       C  0.63057368  0.15613855  0.47497268     0.02100
C1411       C  0.60800017  0.15768197  0.49703198    -0.00200
C1412       C  0.60541116  0.13451521  0.01790671    -0.11900
C1413       C  0.62530918  0.11050407  0.01760269     0.02000
H1414       H  0.66882950  0.13212770  0.45887443     0.15000
H1415       H  0.58749637  0.13492964  0.03422578     0.15000
C1416       C  0.61993584  0.08599137  0.03773990     0.36600
C1417       C  0.63448095  0.17916501  0.45280929     0.36500
N1418       N  0.61537952  0.06615854  0.05356903    -0.43700
N1419       N  0.63770561  0.19753906  0.43498063    -0.43700
C1420       C  0.88446876  0.50417690  0.34116521    -0.00100
C1421       C  0.88411927  0.02744626  0.36199460    -0.12000
C1422       C  0.86323223  0.02809349  0.38527732     0.02100
C1423       C  0.84184786  0.50522003  0.38777130    -0.00200
C1424       C  0.84286530  0.48143516  0.36757401    -0.11900
C1425       C  0.86374278  0.48074060  0.34434008     0.02000
H1426       H  0.90039299  0.04515471  0.36027164     0.15000
H1427       H  0.82660841  0.46370053  0.36929725     0.15000
C1428       C  0.86215533  0.45643676  0.32334699     0.36600
C1429       C  0.86509784  0.05195206  0.40673490     0.36500
N1430       N  0.86067288  0.43695882  0.30655441    -0.43700
N1431       N  0.86683205  0.07111742  0.42386855    -0.43700
C1432       C  0.60887251  0.49795343  0.34120555    -0.00100
C1433       C  0.61508370  0.47233515  0.35802185    -0.12000
C1434       C  0.63713486  0.47235076  0.38029123     0.02100
C1435       C  0.65340525  0.99853148  0.38622150    -0.00200
C1436       C  0.64687814  0.02417559  0.36964891    -0.11900
C1437       C  0.62504762  0.02419298  0.34737786     0.02000
H1438       H  0.60267905  0.45213200  0.35388851     0.15000
H1439       H  0.65935058  0.04438458  0.37346883     0.15000
C1440       C  0.62074263  0.05145851  0.33085643     0.36600
C1441       C  0.64200823  0.44523569  0.39677712     0.36500
N1442       N  0.61754643  0.07339518  0.31773111    -0.43700
N1443       N  0.64548555  0.42321022  0.40963694    -0.43700
C1444       C  0.64979243  0.99811740  0.10648996    -0.00100
C1445       C  0.65001703  0.02057204  0.12817996    -0.12000
C1446       C  0.62912635  0.02089784  0.15139920     0.02100
C1447       C  0.60710259  0.99851974  0.15302795    -0.00200
C1448       C  0.60613732  0.47667800  0.13066451    -0.11900
C1449       C  0.62706677  0.47644758  0.10734072     0.02000
H1450       H  0.66733079  0.03735233  0.12770685     0.15000
H1451       H  0.58883908  0.45989314  0.13123914     0.15000
C1452       C  0.62381632  0.45462928  0.08394523     0.36600
C1453       C  0.63218357  0.04341113  0.17418152     0.36500
N1454       N  0.62084638  0.43729955  0.06508860    -0.43700
N1455       N  0.63479777  0.06136305  0.19249690    -0.43700
C1456       C  0.88707287  0.00607728  0.15206377    -0.00100
C1457       C  0.86817307  0.03070086  0.14871232    -0.12000
C1458       C  0.84492887  0.03059603  0.12782417     0.02100
C1459       C  0.84036413  0.50540016  0.10956285    -0.00200
C1460       C  0.85999054  0.48120670  0.11218861    -0.11900
C1461       C  0.88321872  0.48132856  0.13311436     0.02000
H1462       H  0.87079030  0.04979226  0.16320440     0.15000
H1463       H  0.85732472  0.46204769  0.09780202     0.15000
C1464       C  0.90315002  0.45611550  0.13391281     0.36600
C1465       C  0.82547171  0.05615616  0.12681030     0.36500
N1466       N  0.91903420  0.43584319  0.13408415    -0.43700
N1467       N  0.80996468  0.07670798  0.12609815    -0.43700
C1468       C  0.00169501  0.11596132  0.33928879    -0.00100
C1469       C  0.97705091  0.11811103  0.35863490    -0.12000
C1470       C  0.97594346  0.13974054  0.38121098     0.02100
C1471       C  0.49978841  0.15994546  0.38458867    -0.00200
C1472       C  0.52417707  0.15802973  0.36499802    -0.11900
C1473       C  0.52524984  0.13663177  0.34238252     0.02000
H1474       H  0.95878070  0.10249779  0.35644323     0.12600
H1475       H  0.54228134  0.17386426  0.36677464     0.15000
C1476       C  0.55008130  0.13781472  0.32182827     0.36600
C1477       C  0.95066859  0.13980400  0.40125976     0.36500
N1478       N  0.57006336  0.13917072  0.30546598    -0.43700
N1479       N  0.93040510  0.13953895  0.41732059    -0.43700
C1480       C  0.99170114  0.38894709  0.34087442    -0.00100
C1481       C  0.51427219  0.39077894  0.36267487    -0.12000
C1482       C  0.51636707  0.36972175  0.38568878     0.02100
C1483       C  0.99588605  0.34594736  0.38680352    -0.00200
C1484       C  0.97318182  0.34431167  0.36514835    -0.11900
C1485       C  0.97103768  0.36536857  0.34218893     0.02000
H1486       H  0.53005966  0.40899632  0.36193207     0.15000
H1487       H  0.95754560  0.32596592  0.36559216     0.15000
C1488       C  0.94872355  0.36099954  0.31923835     0.36600
C1489       C  0.53874831  0.37401336  0.40854434     0.36500
N1490       N  0.93096473  0.35734495  0.30075469    -0.43700
N1491       N  0.55657215  0.37784369  0.42691561    -0.43700
C1492       C  0.99312229  0.34309185  0.11105391    -0.00100
C1493       C  0.97208656  0.34162288  0.13424914    -0.12000
C1494       C  0.97143196  0.36301705  0.15686919     0.02100
C1495       C  0.49162366  0.38699040  0.15608740    -0.00200
C1496       C  0.51278802  0.38846981  0.13296451    -0.11900
C1497       C  0.51367683  0.36677120  0.11048251     0.02000
H1498       H  0.95663106  0.32313941  0.13523880     0.15000
H1499       H  0.52840706  0.40683223  0.13225949     0.15000
C1500       C  0.53507125  0.36994929  0.08652007     0.36600
C1501       C  0.95122509  0.35858511  0.18165792     0.36500
N1502       N  0.55216310  0.37266144  0.06728816    -0.43700
N1503       N  0.93525249  0.35479455  0.20165640    -0.43700
C1504       C  0.50267434  0.11186790  0.15349012    -0.00100
C1505       C  0.97951843  0.11076800  0.13244922    -0.12000
C1506       C  0.97765944  0.13159956  0.10922818     0.02100
C1507       C  0.49861283  0.15489697  0.10756041    -0.00200
C1508       C  0.52241661  0.15534697  0.12803592    -0.11900
C1509       C  0.52476278  0.13406305  0.15074086     0.02000
H1510       H  0.96301261  0.09322675  0.13386718     0.15000
H1511       H  0.53892720  0.17288796  0.12682592     0.15000
C1512       C  0.54928896  0.13663456  0.17159547     0.36600
C1513       C  0.95534851  0.12715815  0.08642173     0.36500
N1514       N  0.56909354  0.13878634  0.18813179    -0.43700
N1515       N  0.93775580  0.12281140  0.06797986    -0.43700
C1516       C  0.50267226  0.09011358  0.67826253     0.42500
N1517       N  0.98735741  0.06370074  0.71507641     0.01400
C1518       C  0.57315064  0.47034709  0.80291932    -0.06500
H1519       H  0.57500599  0.44777874  0.68604038     0.06900
C1520       C  0.96542737  0.42394134  0.69341406    -0.06900
Co1521     Co  0.53794410  0.03592803  0.74809697     0.74200
N1522       N  0.55641434  0.48141981  0.71499223    -0.26000
Co1523     Co  0.53171876  0.45935609  0.74761694     0.74100
C1524       C  0.49136347  0.41036172  0.67922924     0.42600
N1525       N  0.93469314  0.49189198  0.71440369     0.01000
N1526       N  0.50613004  0.43861485  0.71477479     0.01100
N1527       N  0.57583898  0.02036108  0.80202944    -0.46900
H1528       H  0.55183397  0.07826345  0.68795578     0.06800
N1529       N  0.55883920  0.01057101  0.71544221     0.01400
N1530       N  0.50587239  0.43856116  0.78029495     0.01100
C1531       C  0.99108415  0.41128040  0.81665268     0.42700
N1532       N  0.93703864  0.02105957  0.71473970    -0.25500
C1533       C  0.52760320  0.07785830  0.80232206    -0.06400
N1534       N  0.97802759  0.08111706  0.69303093    -0.46600
N1535       N  0.51561518  0.42090435  0.80193996    -0.46800
C1536       C  0.00183686  0.09242223  0.81601432     0.42500
N1537       N  0.55835361  0.01026475  0.78057605     0.01400
N1538       N  0.93626013  0.02075638  0.78000668    -0.25500
N1539       N  0.51659203  0.06080524  0.71552316    -0.26000
N1540       N  0.93380819  0.49160013  0.77966787     0.01000
H1541       H  0.91681555  0.05459512  0.80804002     0.06900
H1542       H  0.94161366  0.42212680  0.80719295     0.06900
N1543       N  0.55643022  0.48111201  0.78042719    -0.26100
N1544       N  0.97678347  0.44105374  0.71504946    -0.25700
N1545       N  0.98681258  0.06386756  0.78059874     0.01400
C1546       C  0.58534946  0.99725092  0.67790698     0.42800
C1547       C  0.92165731  0.03220585  0.69159995    -0.06900
N1548       N  0.97645483  0.44111808  0.77997236    -0.25700
H1549       H  0.94192480  0.42074359  0.68895293     0.06900
N1550       N  0.57603847  0.02090176  0.69378909    -0.46900
H1551       H  0.91934666  0.05549607  0.68625196     0.06900
C1552       C  0.90630145  0.50518980  0.81634735     0.42600
C1553       C  0.52830775  0.07654757  0.69304179    -0.06400
Co1554     Co  0.96130016  0.04290609  0.74766877     0.73800
N1555       N  0.91812131  0.48213728  0.69195267    -0.46600
C1556       C  0.58606829  0.49661119  0.81718874     0.42900
N1557       N  0.97728844  0.08257268  0.80142089    -0.46600
Co1558     Co  0.95486288  0.46607608  0.74727295     0.73900
C1559       C  0.96509264  0.42467218  0.80219636    -0.06900
C1560       C  0.57230390  0.47091120  0.69183625    -0.06500
N1561       N  0.51612712  0.06097169  0.78055062    -0.26000
N1562       N  0.51585896  0.42040959  0.69363519    -0.46800
H1563       H  0.57651436  0.44710252  0.80787329     0.06900
C1564       C  0.91975236  0.03140622  0.80261337    -0.06900
Cl1565     Cl  0.49642350  0.00104737  0.74777103    -0.49900
C1566       C  0.90939048  0.00632081  0.67637944     0.42600
H1567       H  0.55112259  0.08009451  0.80722333     0.06800
N1568       N  0.91603360  0.48141082  0.80092213    -0.46600
C1569       C  0.58704464  0.18302401  0.99889391     0.42500
N1570       N  0.55950897  0.21988231  0.98632245     0.01400
C1571       C  0.96701127  0.30399695  0.57642720    -0.06500
H1572       H  0.94605120  0.18777521  0.57690887     0.06900
C1573       C  0.91845426  0.19804553  0.96771092    -0.06900
Co1574     Co  0.53329667  0.25100021  0.53915609     0.74200
N1575       N  0.97916910  0.21712651  0.55823058    -0.26000
Co1576     Co  0.95585346  0.24990262  0.53482751     0.74100
C1577       C  0.90468709  0.18364759  0.99358143     0.42600
N1578       N  0.98562663  0.21983186  0.93525400     0.01000
N1579       N  0.93411196  0.21814482  0.50877323     0.01100
N1580       N  0.51750862  0.30496389  0.57814426    -0.46900
H1581       H  0.57784615  0.19048008  0.54911539     0.06800
N1582       N  0.50856488  0.21785969  0.56010248     0.01400
N1583       N  0.93397505  0.28281666  0.51028643     0.01100
C1584       C  0.90702056  0.32007990  0.99744201     0.42700
N1585       N  0.51503011  0.22038924  0.93694875    -0.25500
C1586       C  0.57563417  0.30488862  0.52781610    -0.06400
N1587       N  0.57687615  0.19879181  0.97529360    -0.46600
N1588       N  0.91683520  0.30418636  0.52115291    -0.46800
C1589       C  0.58883325  0.31883714  0.00125013     0.42500
N1590       N  0.50763100  0.28293861  0.56116500     0.01400
N1591       N  0.51433199  0.28513170  0.93812471    -0.25500
N1592       N  0.55785071  0.21915368  0.51582917    -0.26000
N1593       N  0.98495124  0.28474366  0.93630070     0.01000
H1594       H  0.54783844  0.31323852  0.91831783     0.06900
H1595       H  0.91651500  0.31233872  0.94731754     0.06900
N1596       N  0.97821690  0.28196963  0.55977594    -0.26100
N1597       N  0.93592374  0.21915495  0.97931743    -0.25700
N1598       N  0.55883412  0.28432373  0.98750721     0.01400
C1599       C  0.49623021  0.17937403  0.58551061     0.42800
C1600       C  0.52610290  0.19839477  0.92018367    -0.06900
N1601       N  0.93587961  0.28359691  0.98079997    -0.25700
H1602       H  0.91547336  0.19412957  0.94407520     0.06900
N1603       N  0.51960755  0.19593414  0.57644952    -0.46900
H1604       H  0.54956044  0.19362871  0.91696474     0.06900
C1605       C  0.99779842  0.32216062  0.90960645     0.42600
C1606       C  0.57442860  0.19639155  0.52587458    -0.06400
Co1607     Co  0.53736554  0.25248508  0.96180005     0.73800
N1608       N  0.97562775  0.19823443  0.91780816    -0.46600
C1609       C  0.99307049  0.31938044  0.58824796     0.42900
N1610       N  0.57730046  0.30475839  0.97726609    -0.46600
Co1611     Co  0.96021473  0.25179785  0.95740216     0.73900
C1612       C  0.91965323  0.30649050  0.97060992    -0.06900
C1613       C  0.96924256  0.19359743  0.57372659    -0.06500
N1614       N  0.55755624  0.28374852  0.51699601    -0.26000
N1615       N  0.91561322  0.19725693  0.51827389    -0.46800
H1616       H  0.94355138  0.30865589  0.57979101     0.06900
C1617       C  0.52457872  0.30799700  0.92189973    -0.06900
Cl1618     Cl  0.99669064  0.25128827  0.99830072    -0.49900
C1619       C  0.49994409  0.18355483  0.90769134     0.42600
H1620       H  0.57998874  0.30879383  0.55129926     0.06800
N1621       N  0.97417505  0.30621211  0.91915776    -0.46600
C1622       C  0.81512735  0.50324372  0.58829610     0.42500
N1623       N  0.77764880  0.01487033  0.56086442     0.01400
C1624       C  0.69704196  0.41992107  0.97028935    -0.06500
H1625       H  0.80956839  0.42294705  0.94699060     0.06900
C1626       C  0.80165007  0.03152445  0.92188058    -0.06900
Co1627     Co  0.74819094  0.46139164  0.53516305     0.74200
N1628       N  0.78216046  0.44256833  0.98109943    -0.26000
Co1629     Co  0.74876194  0.46473099  0.95794685     0.74100
C1630       C  0.81760114  0.50575254  0.91021375     0.42600
N1631       N  0.77697110  0.06469444  0.98668554     0.01000
N1632       N  0.78041835  0.49098458  0.93647134     0.01100
N1633       N  0.69760704  0.41884739  0.52087470    -0.46900
H1634       H  0.80825405  0.45331310  0.57950052     0.06800
N1635       N  0.78232247  0.44116335  0.51060099     0.01400
N1636       N  0.71521293  0.48811772  0.93593552     0.01100
C1637       C  0.67758391  0.00009481  0.90881131     0.42700
N1638       N  0.77640219  0.06342163  0.51617998    -0.25500
C1639       C  0.69061176  0.47156295  0.57334231    -0.06400
N1640       N  0.79882072  0.02629281  0.57796729    -0.46600
N1641       N  0.69379210  0.47687281  0.91893649    -0.46800
C1642       C  0.67429894  0.99745956  0.58434944     0.42500
N1643       N  0.71737605  0.43782094  0.51016158     0.01400
N1644       N  0.71115156  0.06064290  0.51500633    -0.25500
N1645       N  0.77901912  0.48569485  0.55944276    -0.26000
N1646       N  0.71160654  0.06222446  0.98553161     0.01000
H1647       H  0.68203175  0.07939964  0.54842253     0.06900
H1648       H  0.68511465  0.04995580  0.91772921     0.06900
N1649       N  0.71755187  0.43891526  0.98067940    -0.26100
N1650       N  0.77919260  0.02015750  0.93795740    -0.25700
N1651       N  0.71248645  0.01202691  0.55949727     0.01400
C1652       C  0.82022072  0.41526685  0.99699105     0.42800
C1653       C  0.79834176  0.08051687  0.52706061    -0.06900
N1654       N  0.71426337  0.01733111  0.93725880    -0.25700
H1655       H  0.80551211  0.05489246  0.91817343     0.06900
N1656       N  0.80450849  0.42463781  0.52107040    -0.46900
H1657       H  0.80256541  0.08439167  0.55055943     0.06900
C1658       C  0.67301723  0.08744066  0.99821276     0.42600
C1659       C  0.80203517  0.47624526  0.57603594    -0.06400
Co1660     Co  0.74439154  0.03822251  0.53848172     0.73800
N1661       N  0.79847116  0.08207556  0.97643683    -0.46600
C1662       C  0.68373627  0.40659750  0.99713512     0.42900
N1663       N  0.68946576  0.02168541  0.57528333    -0.46600
Co1664     Co  0.74551460  0.04164721  0.96132852     0.73900
C1665       C  0.69123167  0.02695764  0.92086896    -0.06900
C1666       C  0.80509854  0.42680464  0.97044381    -0.06500
N1667       N  0.71382357  0.48280728  0.55816608    -0.26000
N1668       N  0.80286921  0.48142929  0.91981452    -0.46800
H1669       H  0.69307495  0.41529757  0.94690408     0.06900
C1670       C  0.68758167  0.07595158  0.52512131    -0.06900
Cl1671     Cl  0.74669866  0.00148296  0.99821767    -0.49900
C1672       C  0.81328102  0.09261585  0.00057433     0.42600
H1673       H  0.68617127  0.44826180  0.57669466     0.06800
N1674       N  0.68948250  0.07849206  0.97455300    -0.46600
C1675       C  0.88597120  0.34545369  0.99884501    -0.00100
C1676       C  0.88620210  0.36639659  0.97554104    -0.12000
C1677       C  0.86591513  0.39005740  0.97505628     0.02100
C1678       C  0.84429032  0.39270156  0.99795298    -0.00200
C1679       C  0.84477653  0.37241848  0.52181649    -0.11900
C1680       C  0.86531726  0.34898519  0.52250863     0.02000
H1681       H  0.90251698  0.36449657  0.95771063     0.15000
H1682       H  0.82841906  0.37429262  0.53962043     0.15000
C1683       C  0.86364908  0.32827119  0.54713864     0.36600
C1684       C  0.86869834  0.41179666  0.95142262     0.36500
N1685       N  0.86225534  0.31171725  0.56692123    -0.43700
N1686       N  0.87112426  0.42923668  0.93252827    -0.43700
C1687       C  0.83758452  0.11497531  0.99895164    -0.00100
C1688       C  0.83954622  0.13274525  0.97317154    -0.12000
C1689       C  0.86116236  0.15501378  0.97053531     0.02100
C1690       C  0.88152836  0.16006253  0.99425774    -0.00200
C1691       C  0.87956615  0.14224676  0.51996662    -0.11900
C1692       C  0.85850055  0.11943653  0.52226954     0.02000
H1693       H  0.82369127  0.12962101  0.95504544     0.15000
H1694       H  0.89494985  0.14593707  0.53831621     0.15000
C1695       C  0.86030668  0.10009731  0.54799204     0.36600
C1696       C  0.86056333  0.17299269  0.94378400     0.36500
N1697       N  0.86238162  0.08458579  0.56856951    -0.43700
N1698       N  0.85969504  0.18713618  0.92214071    -0.43700
C1699       C  0.61339494  0.34099506  0.99983885    -0.00100
C1700       C  0.62583929  0.35166850  0.52662812    -0.12000
C1701       C  0.64940967  0.37206111  0.52644055     0.02100
C1702       C  0.66016804  0.38345081  0.99890710    -0.00200
C1703       C  0.64817291  0.37228325  0.97219317    -0.11900
C1704       C  0.62550838  0.35102147  0.97232954     0.02000
H1705       H  0.61765721  0.34369256  0.54796653     0.15000
H1706       H  0.65678827  0.37970989  0.95086684     0.15000
C1707       C  0.61616848  0.33944267  0.94367441     0.36600
C1708       C  0.66266705  0.37970588  0.55490906     0.36500
N1709       N  0.60917822  0.33008503  0.92058544    -0.43700
N1710       N  0.67339003  0.38539012  0.57779196    -0.43700
C1711       C  0.64902737  0.10998906  0.99681072    -0.00100
C1712       C  0.65086354  0.13247242  0.97514361    -0.12000
C1713       C  0.63057234  0.15613219  0.97497215     0.02100
C1714       C  0.60799354  0.15767046  0.99702633    -0.00200
C1715       C  0.60542318  0.13453152  0.51791844    -0.11900
C1716       C  0.62532049  0.11051981  0.51761470     0.02000
H1717       H  0.66883370  0.13212645  0.95887944     0.15000
H1718       H  0.58751286  0.13494987  0.53424226     0.15000
C1719       C  0.61995203  0.08601323  0.53776084     0.36600
C1720       C  0.63448359  0.17916256  0.95281362     0.36500
N1721       N  0.61539945  0.06618584  0.55359802    -0.43700
N1722       N  0.63771130  0.19753947  0.93498854    -0.43700
C1723       C  0.88444765  0.50418121  0.84114736    -0.00100
C1724       C  0.88409996  0.02744512  0.86198163    -0.12000
C1725       C  0.86321252  0.02809351  0.88526245     0.02100
C1726       C  0.84182605  0.50522315  0.88775116    -0.00200
C1727       C  0.84283719  0.48144334  0.86754748    -0.11900
C1728       C  0.86371463  0.48075015  0.84431351     0.02000
H1729       H  0.90037481  0.04515271  0.86025960     0.15000
H1730       H  0.82657596  0.46371211  0.86926632     0.15000
C1731       C  0.86211994  0.45645494  0.82331073     0.36600
C1732       C  0.86507730  0.05195407  0.90671774     0.36500
N1733       N  0.86063144  0.43698459  0.80650970    -0.43700
N1734       N  0.86681075  0.07112174  0.92384879    -0.43700
C1735       C  0.60887683  0.49795695  0.84119911    -0.00100
C1736       C  0.61507023  0.47234470  0.85803144    -0.12000
C1737       C  0.63711833  0.47236045  0.88030386     0.02100
C1738       C  0.65340856  0.99852477  0.88621685    -0.00200
C1739       C  0.64688243  0.02416995  0.86964524    -0.11900
C1740       C  0.62505328  0.02418887  0.84737273     0.02000
H1741       H  0.60265252  0.45214725  0.85390961     0.15000
H1742       H  0.65935441  0.04437878  0.87346718     0.15000
C1743       C  0.62075007  0.05145505  0.83085191     0.36600
C1744       C  0.64197102  0.44525408  0.89681055     0.36500
N1745       N  0.61755551  0.07339222  0.81772703    -0.43700
N1746       N  0.64543198  0.42323646  0.90968853    -0.43700
C1747       C  0.64979135  0.99811836  0.60648916    -0.00100
C1748       C  0.65002230  0.02056734  0.62818514    -0.12000
C1749       C  0.62913160  0.02089271  0.65140430     0.02100
C1750       C  0.60710050  0.99852153  0.65302544    -0.00200
C1751       C  0.60612950  0.47667540  0.63065799    -0.11900
C1752       C  0.62705969  0.47644322  0.60733485     0.02000
H1753       H  0.66734105  0.03734257  0.62771687     0.15000
H1754       H  0.58882896  0.45989303  0.63123141     0.15000
C1755       C  0.62380879  0.45462491  0.58393932     0.36600
C1756       C  0.63219689  0.04339608  0.67419556     0.36500
N1757       N  0.62083927  0.43729471  0.56508303    -0.43700
N1758       N  0.63481730  0.06133912  0.69251892    -0.43700
C1759       C  0.88705850  0.00606320  0.65206849    -0.00100
C1760       C  0.86814866  0.03068042  0.64873132    -0.12000
C1761       C  0.84490312  0.03057542  0.62784639     0.02100
C1762       C  0.84034891  0.50538839  0.60957696    -0.00200
C1763       C  0.85998207  0.48119936  0.61219419    -0.11900
C1764       C  0.88321188  0.48132221  0.63311801     0.02000
H1765       H  0.87075947  0.04976650  0.66323186     0.15000
H1766       H  0.85732113  0.46204426  0.59780153     0.15000
C1767       C  0.90315182  0.45611550  0.63390801     0.36600
C1768       C  0.82543389  0.05612698  0.62684837     0.36500
N1769       N  0.91904350  0.43584893  0.63407363    -0.43700
N1770       N  0.80991664  0.07667159  0.62615008    -0.43700
C1771       C  0.00167850  0.11596789  0.83927113    -0.00100
C1772       C  0.97703603  0.11811848  0.85861980    -0.12000
C1773       C  0.97592930  0.13975021  0.88119458     0.02100
C1774       C  0.49978050  0.15994469  0.88458560    -0.00200
C1775       C  0.52417344  0.15802282  0.86500105    -0.11900
C1776       C  0.52524661  0.13662488  0.84238591     0.02000
H1777       H  0.95876626  0.10250444  0.85643091     0.12600
H1778       H  0.54228099  0.17385335  0.86678135     0.15000
C1779       C  0.55008091  0.13780556  0.82183507     0.36600
C1780       C  0.95065303  0.13981807  0.90124172     0.36500
N1781       N  0.57006494  0.13916053  0.80547512    -0.43700
N1782       N  0.93038762  0.13955731  0.91730021    -0.43700
C1783       C  0.99171365  0.38894975  0.84087259    -0.00100
C1784       C  0.51427870  0.39077631  0.86267322    -0.12000
C1785       C  0.51637498  0.36971631  0.88568438     0.02100
C1786       C  0.99589902  0.34594828  0.88679966    -0.00200
C1787       C  0.97319577  0.34431241  0.86514354    -0.11900
C1788       C  0.97105187  0.36536974  0.84218471     0.02000
H1789       H  0.53006221  0.40899736  0.86193523     0.15000
H1790       H  0.95755988  0.32596633  0.86558642     0.15000
C1791       C  0.94873995  0.36099975  0.81923211     0.36600
C1792       C  0.53875484  0.37400709  0.90854154     0.36500
N1793       N  0.93098328  0.35734440  0.80074654    -0.43700
N1794       N  0.55657825  0.37783579  0.92691359    -0.43700
C1795       C  0.99311411  0.34309870  0.61105448    -0.00100
C1796       C  0.97207622  0.34163113  0.63424775    -0.12000
C1797       C  0.97142453  0.36302267  0.65687019     0.02100
C1798       C  0.49162328  0.38699279  0.65608620    -0.00200
C1799       C  0.51279258  0.38846893  0.63296775    -0.11900
C1800       C  0.51368015  0.36677217  0.61048410     0.02000
H1801       H  0.95661787  0.32314999  0.63523490     0.15000
H1802       H  0.52841697  0.40682714  0.63226779     0.15000
C1803       C  0.53508244  0.36994538  0.58652804     0.36600
C1804       C  0.95121778  0.35858981  0.68165892     0.36500
N1805       N  0.55218116  0.37265365  0.56730172    -0.43700
N1806       N  0.93524568  0.35479806  0.70165759    -0.43700
C1807       C  0.50266718  0.11187541  0.65349476    -0.00100
C1808       C  0.97951937  0.11076048  0.63243443    -0.12000
C1809       C  0.97766832  0.13159375  0.60921342     0.02100
C1810       C  0.49860962  0.15490513  0.60756574    -0.00200
C1811       C  0.52240620  0.15536096  0.62804931    -0.11900
C1812       C  0.52475056  0.13407645  0.65075383     0.02000
H1813       H  0.96302361  0.09320870  0.63383589     0.15000
H1814       H  0.53891259  0.17290616  0.62684515     0.15000
C1815       C  0.54926983  0.13665211  0.67161607     0.36600
C1816       C  0.95538230  0.12714210  0.58638406     0.36500
N1817       N  0.56906887  0.13880670  0.68815866    -0.43700
N1818       N  0.93781213  0.12278898  0.56792200    -0.43700
C1819       C  0.50267697  0.59008787  0.17823843     0.42500
N1820       N  0.98736528  0.56369449  0.21506627     0.01400
C1821       C  0.57314958  0.97033533  0.30291570    -0.06500
H1822       H  0.57499824  0.94779421  0.18601764     0.06900
C1823       C  0.96542462  0.92393999  0.19339410    -0.06900
Co1824     Co  0.53794325  0.53592581  0.24809615     0.74200
N1825       N  0.55641217  0.98142676  0.21498341    -0.26000
Co1826     Co  0.53171778  0.95935542  0.24760719     0.74100
C1827       C  0.49134954  0.91036863  0.17922057     0.42600
N1828       N  0.93471104  0.99190410  0.21439814     0.01000
N1829       N  0.50612292  0.93862198  0.21476357     0.01100
N1830       N  0.57583591  0.52036935  0.30203457    -0.46900
H1831       H  0.55183714  0.57823304  0.18793621     0.06800
N1832       N  0.55884393  0.51056132  0.21545123     0.01400
N1833       N  0.50587251  0.93855443  0.28028435     0.01100
C1834       C  0.99107114  0.91126324  0.31664269     0.42700
N1835       N  0.93704364  0.52105639  0.21473849    -0.25500
C1836       C  0.52760038  0.57786980  0.30230878    -0.06400
N1837       N  0.97803686  0.58110361  0.19301390    -0.46600
N1838       N  0.51561505  0.92089343  0.30192636    -0.46800
C1839       C  0.00184643  0.59243127  0.31600354     0.42500
N1840       N  0.55834854  0.51026970  0.28058423     0.01400
N1841       N  0.93626566  0.52076151  0.28000665    -0.25500
N1842       N  0.51659392  0.56079368  0.21551271    -0.26000
N1843       N  0.93381844  0.99159632  0.27966405     0.01000
H1844       H  0.91682601  0.55460244  0.30804143     0.06900
H1845       H  0.94160217  0.92211611  0.30718285     0.06900
N1846       N  0.55643308  0.98110316  0.28042130    -0.26100
N1847       N  0.97678062  0.94104557  0.21503440    -0.25700
N1848       N  0.98681996  0.56387342  0.28059090     0.01400
C1849       C  0.58536458  0.49723225  0.17792696     0.42800
C1850       C  0.92166174  0.53220049  0.19159812    -0.06900
N1851       N  0.97644697  0.94109150  0.27995679    -0.25700
H1852       H  0.94192226  0.92074220  0.18893200     0.06900
N1853       N  0.57604879  0.52088699  0.19380020    -0.46900
H1854       H  0.91935263  0.55549030  0.18624780     0.06900
C1855       C  0.90632382  0.00518268  0.31635840     0.42600
C1856       C  0.52831094  0.57652460  0.19302388    -0.06400
Co1857     Co  0.96130645  0.54290678  0.24766406     0.73800
N1858       N  0.91813701  0.98215959  0.19194321    -0.46600
C1859       C  0.58606311  0.99659824  0.31719285     0.42900
N1860       N  0.97729711  0.58258091  0.30141171    -0.46600
Co1861     Co  0.95486808  0.96605782  0.24726356     0.73900
C1862       C  0.96508144  0.92465297  0.30218325    -0.06900
C1863       C  0.57229823  0.97092497  0.19182130    -0.06500
N1864       N  0.51612382  0.56097849  0.28054127    -0.26000
N1865       N  0.51584753  0.92041600  0.19362266    -0.46800
H1866       H  0.57650954  0.94709030  0.30786936     0.06900
C1867       C  0.91976065  0.53141328  0.30261505    -0.06900
Cl1868     Cl  0.49642289  0.50104507  0.24777321    -0.49900
C1869       C  0.90939140  0.50631424  0.17638193     0.42600
H1870       H  0.55112004  0.58010555  0.30721008     0.06800
N1871       N  0.91604747  0.98140684  0.30092213    -0.46600
C1872       C  0.58705934  0.68304258  0.49891027     0.42500
N1873       N  0.55951143  0.71989032  0.48633270     0.01400
C1874       C  0.96701852  0.80398511  0.07642555    -0.06500
H1875       H  0.94606341  0.68775386  0.07688871     0.06900
C1876       C  0.91846242  0.69802527  0.46772088    -0.06900
Co1877     Co  0.53329391  0.75099710  0.03915740     0.74200
N1878       N  0.97917829  0.71711507  0.05821942    -0.26000
Co1879     Co  0.95586121  0.74989569  0.03482117     0.74100
C1880       C  0.90469817  0.68362884  0.49359463     0.42600
N1881       N  0.98563126  0.71982316  0.43525955     0.01000
N1882       N  0.93411809  0.71814161  0.00876474     0.01100
N1883       N  0.51750200  0.80496175  0.07814603    -0.46900
H1884       H  0.57784539  0.69047915  0.04912059     0.06800
N1885       N  0.50855995  0.71785478  0.06009941     0.01400
N1886       N  0.93398176  0.78281381  0.01028364     0.01100
C1887       C  0.90700735  0.82006533  0.49743637     0.42700
N1888       N  0.51503245  0.72038786  0.43695607    -0.25500
C1889       C  0.57563300  0.80488571  0.02782132    -0.06400
N1890       N  0.57688716  0.69880471  0.47530744    -0.46600
N1891       N  0.91683938  0.80418137  0.02115116    -0.46800
C1892       C  0.58882208  0.81884916  0.50125580     0.42500
N1893       N  0.50762655  0.78293583  0.06116602     0.01400
N1894       N  0.51432855  0.78513186  0.43812720    -0.25500
N1895       N  0.55784999  0.71915070  0.01583239    -0.26000
N1896       N  0.98494281  0.78473546  0.43629820     0.01000
H1897       H  0.54783446  0.81324082  0.41832250     0.06900
H1898       H  0.91650358  0.81232153  0.44731282     0.06900
N1899       N  0.97822498  0.78195960  0.05977253    -0.26100
N1900       N  0.93592720  0.71914105  0.47932302    -0.25700
N1901       N  0.55882687  0.78433174  0.48751332     0.01400
C1902       C  0.49622507  0.67936062  0.08549599     0.42800
C1903       C  0.52610789  0.69839169  0.42019437    -0.06900
N1904       N  0.93587167  0.78358472  0.48079804    -0.25700
H1905       H  0.91548296  0.69410389  0.44408603     0.06900
N1906       N  0.51960207  0.69592395  0.07643956    -0.46900
H1907       H  0.54956593  0.69362672  0.41697744     0.06900
C1908       C  0.99778223  0.82215419  0.40960258     0.42600
C1909       C  0.57442857  0.69638975  0.02587953    -0.06400
Co1910     Co  0.53736380  0.75248854  0.46180640     0.73800
N1911       N  0.97563632  0.69822177  0.41781651    -0.46600
C1912       C  0.99307703  0.81936914  0.08824594     0.42900
N1913       N  0.57729201  0.80476751  0.47727214    -0.46600
Co1914     Co  0.96021262  0.75178686  0.45740358     0.73900
C1915       C  0.91964221  0.80647533  0.47060570    -0.06900
C1916       C  0.96925421  0.69358027  0.07370886    -0.06500
N1917       N  0.55755599  0.78374563  0.01699932    -0.26000
N1918       N  0.91561929  0.69725384  0.01826519    -0.46800
H1919       H  0.94355857  0.80864325  0.07978964     0.06900
C1920       C  0.52457475  0.80799770  0.42190243    -0.06900
Cl1921     Cl  0.99668913  0.75128833  0.49830166    -0.49900
C1922       C  0.49995099  0.68354786  0.40770212     0.42600
H1923       H  0.57998526  0.80879076  0.05130501     0.06800
N1924       N  0.97416217  0.80620112  0.41915429    -0.46600
C1925       C  0.81515332  0.00326803  0.08827389     0.42500
N1926       N  0.77764529  0.51486559  0.06086907     0.01400
C1927       C  0.69703981  0.91992421  0.47029150    -0.06500
H1928       H  0.80956196  0.92294158  0.44698807     0.06900
C1929       C  0.80166452  0.53152915  0.42189654    -0.06900
Co1930     Co  0.74819826  0.96140099  0.03516788     0.74200
N1931       N  0.78215893  0.94256840  0.48109801    -0.26000
Co1932     Co  0.74876198  0.96473219  0.45794577     0.74100
C1933       C  0.81761610  0.00574831  0.41022593     0.42600
N1934       N  0.77697316  0.56468881  0.48670275     0.01000
N1935       N  0.78042088  0.99098428  0.43647025     0.01100
N1936       N  0.69760903  0.91885267  0.02089035    -0.46900
H1937       H  0.80828136  0.95333530  0.07948854     0.06800
N1938       N  0.78232489  0.94116581  0.01060297     0.01400
N1939       N  0.71521332  0.98811828  0.43593435     0.01100
C1940       C  0.67759722  0.50010226  0.40880146     0.42700
N1941       N  0.77639962  0.56341925  0.01618722    -0.25500
C1942       C  0.69062023  0.97158187  0.07334981    -0.06400
N1943       N  0.79881748  0.52628809  0.07797158    -0.46600
N1944       N  0.69378829  0.97687193  0.41894174    -0.46800
C1945       C  0.67429836  0.49744357  0.08435397     0.42500
N1946       N  0.71737786  0.93782550  0.01017415     0.01400
N1947       N  0.71114857  0.56063747  0.01501151    -0.25500
N1948       N  0.77903361  0.98571041  0.05943707    -0.26000
N1949       N  0.71160813  0.56222396  0.48553849     0.01000
H1950       H  0.68202769  0.57939312  0.04842744     0.06900
H1951       H  0.68512550  0.54996233  0.41772504     0.06900
N1952       N  0.71755057  0.93891838  0.48068007    -0.26100
N1953       N  0.77920235  0.52016126  0.43796683    -0.25700
N1954       N  0.71248255  0.51201750  0.05949970     0.01400
C1955       C  0.82021422  0.91525976  0.49698786     0.42800
C1956       C  0.79833833  0.58051599  0.02706841    -0.06900
N1957       N  0.71427184  0.51733583  0.43725674    -0.25700
H1958       H  0.80552926  0.55489738  0.41819407     0.06900
N1959       N  0.80450823  0.92463535  0.02107076    -0.46900
H1960       H  0.80256098  0.58439080  0.05056740     0.06900
C1961       C  0.67302429  0.58744828  0.49822277     0.42600
C1962       C  0.80205780  0.97626612  0.07602311    -0.06400
Co1963     Co  0.74438800  0.53821711  0.03848677     0.73800
N1964       N  0.79847693  0.58206774  0.47645903    -0.46600
C1965       C  0.68373241  0.90660379  0.49713817     0.42900
N1966       N  0.68946168  0.52167208  0.07528800    -0.46600
Co1967     Co  0.74551969  0.54164815  0.46133619     0.73900
C1968       C  0.69124292  0.52696409  0.42086362    -0.06900
C1969       C  0.80509382  0.92680082  0.47044145    -0.06500
N1970       N  0.71383382  0.98282224  0.05817284    -0.26000
N1971       N  0.80287827  0.98142697  0.41982321    -0.46800
H1972       H  0.69307300  0.91529908  0.44690679     0.06900
C1973       C  0.68757863  0.57594600  0.02512635    -0.06900
Cl1974     Cl  0.74669688  0.50147872  0.49821916    -0.49900
C1975       C  0.81328595  0.59260323  0.50059905     0.42600
H1976       H  0.68617644  0.94828179  0.07670339     0.06800
N1977       N  0.68948880  0.57849974  0.47456183    -0.46600
C1978       C  0.88595608  0.84543774  0.49883726    -0.00100
C1979       C  0.88619365  0.86638585  0.47553813    -0.12000
C1980       C  0.86590801  0.89004805  0.47505417     0.02100
C1981       C  0.84427897  0.89268920  0.49794740    -0.00200
C1982       C  0.84476568  0.87240215  0.02180988    -0.11900
C1983       C  0.86530912  0.84897063  0.02250198     0.02000
H1984       H  0.90251296  0.86448893  0.45771148     0.15000
H1985       H  0.82840407  0.87427150  0.03961059     0.15000
C1986       C  0.86363694  0.82825001  0.04712599     0.36600
C1987       C  0.86869656  0.91179161  0.45142511     0.36500
N1988       N  0.86224019  0.81169010  0.06690327    -0.43700
N1989       N  0.87112654  0.92923480  0.43253427    -0.43700
C1990       C  0.83759053  0.61496185  0.49897811    -0.00100
C1991       C  0.83955650  0.63272557  0.47319421    -0.12000
C1992       C  0.86117425  0.65499130  0.47055421     0.02100
C1993       C  0.88153905  0.66004416  0.49427668    -0.00200
C1994       C  0.87956214  0.64225554  0.01996913    -0.11900
C1995       C  0.85849362  0.61944811  0.02227800     0.02000
H1996       H  0.82370340  0.62959838  0.45506671     0.15000
H1997       H  0.89494319  0.64595061  0.03831955     0.15000
C1998       C  0.86029443  0.60012135  0.04800983     0.36600
C1999       C  0.86057787  0.67296273  0.44379771     0.36500
N2000       N  0.86236805  0.58462080  0.06859564    -0.43700
N2001       N  0.85971093  0.68709953  0.42214991    -0.43700
C2002       C  0.61338413  0.84100728  0.49984417    -0.00100
C2003       C  0.62582297  0.85168388  0.02664045    -0.12000
C2004       C  0.64938996  0.87208104  0.02645668     0.02100
C2005       C  0.66016087  0.88346006  0.49891170    -0.00200
C2006       C  0.64817521  0.87228150  0.47219808    -0.11900
C2007       C  0.62550781  0.85102247  0.47233513     0.02000
H2008       H  0.61762735  0.84371969  0.04797799     0.15000
H2009       H  0.65679904  0.87969834  0.45087202     0.15000
C2010       C  0.61617338  0.83943692  0.44368096     0.36600
C2011       C  0.66262087  0.87975169  0.05493028     0.36500
N2012       N  0.60918640  0.83007482  0.42059286    -0.43700
N2013       N  0.67332035  0.88545773  0.07781863    -0.43700
C2014       C  0.64903947  0.61000327  0.49682569    -0.00100
C2015       C  0.65087845  0.63248887  0.47516099    -0.12000
C2016       C  0.63059148  0.65615268  0.47499333     0.02100
C2017       C  0.60801147  0.65769095  0.49704620    -0.00200
C2018       C  0.60541933  0.63452544  0.01791737    -0.11900
C2019       C  0.62531659  0.61051374  0.01761316     0.02000
H2020       H  0.66884796  0.63214165  0.45889615     0.15000
H2021       H  0.58750280  0.63493888  0.03423450     0.15000
C2022       C  0.61994335  0.58600234  0.03775203     0.36600
C2023       C  0.63450953  0.67918842  0.45284175     0.36500
N2024       N  0.61538801  0.56617134  0.05358378    -0.43700
N2025       N  0.63774347  0.69757066  0.43502344    -0.43700
C2026       C  0.88447720  0.00416987  0.34116839    -0.00100
C2027       C  0.88411353  0.52745253  0.36199169    -0.12000
C2028       C  0.86322864  0.52809942  0.38527555     0.02100
C2029       C  0.84185097  0.00521430  0.38777205    -0.00200
C2030       C  0.84287328  0.98142708  0.36757796    -0.11900
C2031       C  0.86375379  0.98073122  0.34434627     0.02000
H2032       H  0.90038837  0.54516009  0.36026857     0.15000
H2033       H  0.82661768  0.96369131  0.36930170     0.15000
C2034       C  0.86217223  0.95642233  0.32335898     0.36600
C2035       C  0.86509631  0.55195774  0.40673309     0.36500
N2036       N  0.86069409  0.93693961  0.30657171    -0.43700
N2037       N  0.86683225  0.57112335  0.42386624    -0.43700
C2038       C  0.60886336  0.99794619  0.34121171    -0.00100
C2039       C  0.61508188  0.97232569  0.35802201    -0.12000
C2040       C  0.63712831  0.97234458  0.38029654     0.02100
C2041       C  0.65342148  0.49853332  0.38620799    -0.00200
C2042       C  0.64690498  0.52417469  0.36962656    -0.11900
C2043       C  0.62507180  0.52419407  0.34735763     0.02000
H2044       H  0.60268677  0.95211847  0.35387992     0.15000
H2045       H  0.65938781  0.54437895  0.37343824     0.15000
C2046       C  0.62078032  0.55145330  0.33082220     0.36600
C2047       C  0.64200616  0.94522883  0.39678018     0.36500
N2048       N  0.61759494  0.57338437  0.31768469    -0.43700
N2049       N  0.64548677  0.92320358  0.40963961    -0.43700
C2050       C  0.64979671  0.49809737  0.10650044    -0.00100
C2051       C  0.65002777  0.52054899  0.12819364    -0.12000
C2052       C  0.62914273  0.52087267  0.15141769     0.02100
C2053       C  0.60711546  0.49849846  0.15304550    -0.00200
C2054       C  0.60612792  0.97669952  0.13064633    -0.11900
C2055       C  0.62706023  0.97647008  0.10732487     0.02000
H2056       H  0.66734259  0.53732810  0.12771932     0.15000
H2057       H  0.58883004  0.95991428  0.13121840     0.15000
C2058       C  0.62380834  0.95465869  0.08392318     0.36600
C2059       C  0.63221040  0.54337760  0.17420705     0.36500
N2060       N  0.62083638  0.93733686  0.06505953    -0.43700
N2061       N  0.63483347  0.56132162  0.19252904    -0.43700
C2062       C  0.88705948  0.50605485  0.15207006    -0.00100
C2063       C  0.86817202  0.53068621  0.14870899    -0.12000
C2064       C  0.84492661  0.53058328  0.12782368     0.02100
C2065       C  0.84037929  0.00541884  0.10955148    -0.00200
C2066       C  0.86001964  0.98123527  0.11216540    -0.11900
C2067       C  0.88324790  0.98136004  0.13309227     0.02000
H2068       H  0.87079966  0.54978368  0.16319105     0.15000
H2069       H  0.85736454  0.96208243  0.09776837     0.15000
C2070       C  0.90319820  0.95616144  0.13387446     0.36600
C2071       C  0.82548316  0.55615325  0.12679986     0.36500
N2072       N  0.91909945  0.93590224  0.13403308    -0.43700
N2073       N  0.80998789  0.57671355  0.12608007    -0.43700
C2074       C  0.00168947  0.61597148  0.33926651    -0.00100
C2075       C  0.97704886  0.61811627  0.35861823    -0.12000
C2076       C  0.97594456  0.63974066  0.38120040     0.02100
C2077       C  0.49978916  0.65993949  0.38459358    -0.00200
C2078       C  0.52417770  0.65802527  0.36500280    -0.11900
C2079       C  0.52524816  0.63663283  0.34238156     0.02000
H2080       H  0.95877951  0.60250203  0.35642713     0.12600
H2081       H  0.54228450  0.67385662  0.36678438     0.15000
C2082       C  0.55008387  0.63781492  0.32183248     0.36600
C2083       C  0.95067424  0.63979735  0.40125516     0.36500
N2084       N  0.57007060  0.63917042  0.30547588    -0.43700
N2085       N  0.93041472  0.63952682  0.41732097    -0.43700
C2086       C  0.99169544  0.88893932  0.34086695    -0.00100
C2087       C  0.51428084  0.89076735  0.36266142    -0.12000
C2088       C  0.51637477  0.86971140  0.38567698     0.02100
C2089       C  0.99587846  0.84594307  0.38679742    -0.00200
C2090       C  0.97317266  0.84430785  0.36514379    -0.11900
C2091       C  0.97102875  0.86536381  0.34218387     0.02000
H2092       H  0.53006809  0.90898487  0.36191835     0.15000
H2093       H  0.95753500  0.82596350  0.36558944     0.15000
C2094       C  0.94871037  0.86099740  0.31923642     0.36600
C2095       C  0.53875543  0.87400403  0.40853304     0.36500
N2096       N  0.93094756  0.85734546  0.30075599    -0.43700
N2097       N  0.55657896  0.87783442  0.42690464    -0.43700
C2098       C  0.99311878  0.84309057  0.11104861    -0.00100
C2099       C  0.97208888  0.84161864  0.13424906    -0.12000
C2100       C  0.97143524  0.86301492  0.15686679     0.02100
C2101       C  0.49160655  0.88699901  0.15607792    -0.00200
C2102       C  0.51277255  0.88847654  0.13295662    -0.11900
C2103       C  0.51366297  0.86677661  0.11047632     0.02000
H2104       H  0.95663934  0.82313066  0.13524541     0.15000
H2105       H  0.52839350  0.90683739  0.13225289     0.15000
C2106       C  0.53506401  0.86995003  0.08651930     0.36600
C2107       C  0.95124138  0.85857793  0.18166570     0.36500
N2108       N  0.55216228  0.87265860  0.06729265    -0.43700
N2109       N  0.93528070  0.85478300  0.20167300    -0.43700
C2110       C  0.50267297  0.61184642  0.15346642    -0.00100
C2111       C  0.97953679  0.61073327  0.13240321    -0.12000
C2112       C  0.97768808  0.63156664  0.10918106     0.02100
C2113       C  0.49860720  0.65488364  0.10754325    -0.00200
C2114       C  0.52241970  0.65532200  0.12800880    -0.11900
C2115       C  0.52476846  0.63403392  0.15070948     0.02000
H2116       H  0.96304275  0.59317968  0.13380162     0.15000
H2117       H  0.53893595  0.67285729  0.12679468     0.15000
C2118       C  0.54930627  0.63659391  0.17155161     0.36600
C2119       C  0.95540993  0.62711253  0.08634375     0.36500
N2120       N  0.56912073  0.63873633  0.18807728    -0.43700
N2121       N  0.93784784  0.62275994  0.06787353    -0.43700
C2122       C  0.50267240  0.59008157  0.67823091     0.42500
N2123       N  0.98735421  0.56369479  0.71506166     0.01400
C2124       C  0.57315290  0.97033522  0.80290849    -0.06500
H2125       H  0.57499557  0.94779717  0.68601298     0.06900
C2126       C  0.96542264  0.92394689  0.69340162    -0.06900
Co2127     Co  0.53794242  0.53592684  0.74809199     0.74200
N2128       N  0.55641004  0.98142964  0.71497911    -0.26000
Co2129     Co  0.53171799  0.95935725  0.74760290     0.74100
C2130       C  0.49134876  0.91037280  0.67921602     0.42600
N2131       N  0.93469321  0.99189895  0.71439946     0.01000
N2132       N  0.50612283  0.93862400  0.71475995     0.01100
N2133       N  0.57583858  0.52037318  0.80202952    -0.46900
H2134       H  0.55183316  0.57823052  0.68792852     0.06800
N2135       N  0.55884237  0.51056128  0.71544714     0.01400
N2136       N  0.50587496  0.93855530  0.78028021     0.01100
C2137       C  0.99107961  0.91127303  0.81664245     0.42700
N2138       N  0.93703773  0.52105260  0.71473813    -0.25500
C2139       C  0.52759814  0.57787203  0.80230456    -0.06400
N2140       N  0.97802297  0.58110215  0.69300899    -0.46600
N2141       N  0.51561981  0.92089449  0.80192122    -0.46800
C2142       C  0.00183390  0.59243844  0.81599634     0.42500
N2143       N  0.55834987  0.51027272  0.78058051     0.01400
N2144       N  0.93625980  0.52076180  0.78000377    -0.25500
N2145       N  0.51659135  0.56079202  0.71550783    -0.26000
N2146       N  0.93380690  0.99159505  0.77966551     0.01000
H2147       H  0.91680684  0.55460466  0.80802658     0.06900
H2148       H  0.94160948  0.92212215  0.80718367     0.06900
N2149       N  0.55643434  0.98110424  0.78041632    -0.26100
N2150       N  0.97677977  0.94105716  0.71503845    -0.25700
N2151       N  0.98681091  0.56387679  0.78058613     0.01400
C2152       C  0.58535962  0.49723013  0.67792139     0.42800
C2153       C  0.92165297  0.53219428  0.69159884    -0.06900
N2154       N  0.97645112  0.94111136  0.77996184    -0.25700
H2155       H  0.94191990  0.92074998  0.68894004     0.06900
N2156       N  0.57604529  0.52088589  0.69379408    -0.46900
H2157       H  0.91934055  0.55548359  0.68624789     0.06900
C2158       C  0.90630775  0.00517940  0.81635318     0.42600
C2159       C  0.52830716  0.57652096  0.69301708    -0.06400
Co2160     Co  0.96129894  0.54290675  0.74766098     0.73800
N2161       N  0.91812533  0.98214881  0.69194328    -0.46600
C2162       C  0.58606768  0.99659719  0.81718594     0.42900
N2163       N  0.97728572  0.58258436  0.80140568    -0.46600
Co2164     Co  0.95486038  0.96607570  0.74726569     0.73900
C2165       C  0.96508847  0.92466549  0.80218582    -0.06900
C2166       C  0.57229525  0.97092794  0.69181664    -0.06500
N2167       N  0.51612257  0.56097988  0.78053704    -0.26000
N2168       N  0.51584717  0.92041915  0.69361804    -0.46800
H2169       H  0.57651367  0.94708991  0.80786015     0.06900
C2170       C  0.91974750  0.53141492  0.80260568    -0.06900
Cl2171     Cl  0.49642284  0.50104487  0.74777162    -0.49900
C2172       C  0.90938341  0.50630624  0.67638588     0.42600
H2173       H  0.55111760  0.58011007  0.80720584     0.06800
N2174       N  0.91603578  0.98140283  0.80092134    -0.46600
C2175       C  0.58705332  0.68303416  0.99890459     0.42500
N2176       N  0.55951082  0.71988582  0.98632840     0.01400
C2177       C  0.96700757  0.80399028  0.57642486    -0.06500
H2178       H  0.94606023  0.68775432  0.57688940     0.06900
C2179       C  0.91846068  0.69803790  0.96771136    -0.06900
Co2180     Co  0.53329179  0.75100099  0.53916051     0.74200
N2181       N  0.97917371  0.71712011  0.55822398    -0.26000
Co2182     Co  0.95585412  0.74989644  0.53482409     0.74100
C2183       C  0.90469539  0.68363957  0.99358353     0.42600
N2184       N  0.98563331  0.71983004  0.93525343     0.01000
N2185       N  0.93411444  0.71813757  0.50877166     0.01100
N2186       N  0.51749703  0.80496540  0.57814584    -0.46900
H2187       H  0.57785038  0.69048866  0.54912593     0.06800
N2188       N  0.50855975  0.71785750  0.56010327     0.01400
N2189       N  0.93397160  0.78280960  0.51028353     0.01100
C2190       C  0.90702002  0.82007267  0.99743958     0.42700
N2191       N  0.51503343  0.72038745  0.93695103    -0.25500
C2192       C  0.57562731  0.80489294  0.52782191    -0.06400
N2193       N  0.57688367  0.69879845  0.97530231    -0.46600
N2194       N  0.91682829  0.80417720  0.52114932    -0.46800
C2195       C  0.58882956  0.81884191  0.00125633     0.42500
N2196       N  0.50762234  0.78293798  0.56116770     0.01400
N2197       N  0.51433428  0.78513140  0.93812416    -0.25500
N2198       N  0.55785084  0.71915602  0.51583670    -0.26000
N2199       N  0.98495418  0.78474188  0.93629854     0.01000
H2200       H  0.54784233  0.81323765  0.91831872     0.06900
H2201       H  0.91651638  0.81233258  0.94731546     0.06900
N2202       N  0.97821510  0.78196451  0.55977272    -0.26100
N2203       N  0.93592969  0.71914909  0.97931614    -0.25700
N2204       N  0.55883228  0.78432713  0.98751133     0.01400
C2205       C  0.49622675  0.67936139  0.58549707     0.42800
C2206       C  0.52610722  0.69839127  0.92018815    -0.06900
N2207       N  0.93588249  0.78359203  0.98079829    -0.25700
H2208       H  0.91547932  0.69412081  0.94407611     0.06900
N2209       N  0.51960306  0.69592680  0.57644284    -0.46900
H2210       H  0.54956495  0.69362499  0.91697028     0.06900
C2211       C  0.99779804  0.82216016  0.90960397     0.42600
C2212       C  0.57443262  0.69639765  0.52588471    -0.06400
Co2213     Co  0.53736679  0.75248617  0.96180286     0.73800
N2214       N  0.97563427  0.69823209  0.91780859    -0.46600
C2215       C  0.99306556  0.81937607  0.58824502     0.42900
N2216       N  0.57729929  0.80476201  0.97727156    -0.46600
Co2217     Co  0.96021954  0.75179427  0.95740066     0.73900
C2218       C  0.91965471  0.80648454  0.97060790    -0.06900
C2219       C  0.96925046  0.69358420  0.57371181    -0.06500
N2220       N  0.55755143  0.78375107  0.51700134    -0.26000
N2221       N  0.91561854  0.69724838  0.51827473    -0.46800
H2222       H  0.94354735  0.80864698  0.57978915     0.06900
C2223       C  0.52458220  0.80799615  0.92189886    -0.06900
Cl2224     Cl  0.99669611  0.75128723  0.99829852    -0.49900
C2225       C  0.49994919  0.68354915  0.90769622     0.42600
H2226       H  0.57998021  0.80879911  0.55130527     0.06800
N2227       N  0.97417620  0.80620954  0.91915560    -0.46600
C2228       C  0.81514181  0.00325801  0.58828133     0.42500
N2229       N  0.77763966  0.51485876  0.56087363     0.01400
C2230       C  0.69704256  0.91992102  0.97029906    -0.06500
H2231       H  0.80956385  0.92293936  0.94699137     0.06900
C2232       C  0.80165098  0.53152973  0.92188471    -0.06900
Co2233     Co  0.74819320  0.96140080  0.53516358     0.74200
N2234       N  0.78216171  0.94256718  0.98110139    -0.26000
Co2235     Co  0.74876186  0.96472835  0.95794946     0.74100
C2236       C  0.81760230  0.00574616  0.91021465     0.42600
N2237       N  0.77697238  0.56469240  0.98669649     0.01000
N2238       N  0.78041684  0.99098052  0.93646991     0.01100
N2239       N  0.69760373  0.91885662  0.52088269    -0.46900
H2240       H  0.80826813  0.95332670  0.57949183     0.06800
N2241       N  0.78232031  0.94116534  0.51059947     0.01400
N2242       N  0.71521085  0.98811198  0.93593792     0.01100
C2243       C  0.67759174  0.50010434  0.90880363     0.42700
N2244       N  0.77639897  0.56341379  0.51619337    -0.25500
C2245       C  0.69061534  0.97158266  0.57334542    -0.06400
N2246       N  0.79880838  0.52627966  0.57798139    -0.46600
N2247       N  0.69378768  0.97686504  0.91894314    -0.46800
C2248       C  0.67429265  0.49743675  0.58434896     0.42500
N2249       N  0.71737327  0.93782888  0.51016726     0.01400
N2250       N  0.71114825  0.56063437  0.51501241    -0.25500
N2251       N  0.77902759  0.98570601  0.55943632    -0.26000
N2252       N  0.71160749  0.56222557  0.98553753     0.01000
H2253       H  0.68202998  0.57939203  0.54842906     0.06900
H2254       H  0.68512260  0.54996417  0.91772306     0.06900
N2255       N  0.71755350  0.93891496  0.98068694    -0.26100
N2256       N  0.77919486  0.52016141  0.93796229    -0.25700
N2257       N  0.71247795  0.51201137  0.55949726     0.01400
C2258       C  0.82021919  0.91526085  0.99699106     0.42800
C2259       C  0.79833898  0.58050752  0.52707678    -0.06900
N2260       N  0.71426655  0.51733699  0.93725834    -0.25700
H2261       H  0.80551224  0.55489804  0.91817858     0.06900
N2262       N  0.80450239  0.92463335  0.52106740    -0.46900
H2263       H  0.80256174  0.58437989  0.55057620     0.06900
C2264       C  0.67302137  0.58744573  0.99822066     0.42600
C2265       C  0.80204757  0.97625829  0.57602588    -0.06400
Co2266     Co  0.74438522  0.53821171  0.53848893     0.73800
N2267       N  0.79847394  0.58207317  0.97645061    -0.46600
C2268       C  0.68373677  0.90660008  0.99714596     0.42900
N2269       N  0.68945645  0.52166547  0.57528469    -0.46600
Co2270     Co  0.74551647  0.54164950  0.96133414     0.73900
C2271       C  0.69123849  0.52696578  0.92086437    -0.06900
C2272       C  0.80509679  0.92679980  0.97044464    -0.06500
N2273       N  0.71382907  0.98282255  0.55816844    -0.26000
N2274       N  0.80286984  0.98142379  0.91981689    -0.46800
H2275       H  0.69307435  0.91529693  0.94691438     0.06900
C2276       C  0.68757997  0.57594500  0.52512774    -0.06900
Cl2277     Cl  0.74669653  0.50148160  0.99821886    -0.49900
C2278       C  0.81328310  0.59261187  0.00058934     0.42600
H2279       H  0.68617053  0.94828267  0.57669838     0.06800
N2280       N  0.68948623  0.57849783  0.97456016    -0.46600
C2281       C  0.88596781  0.84544451  0.99884162    -0.00100
C2282       C  0.88620208  0.86639136  0.97554122    -0.12000
C2283       C  0.86591421  0.89005167  0.97505685     0.02100
C2284       C  0.84428625  0.89269246  0.99795108    -0.00200
C2285       C  0.84475464  0.87239698  0.52180450    -0.11900
C2286       C  0.86529589  0.84896373  0.52249627     0.02000
H2287       H  0.90252024  0.86449478  0.95771354     0.15000
H2288       H  0.82839189  0.87426636  0.53960411     0.15000
C2289       C  0.86361991  0.82824131  0.54711845     0.36600
C2290       C  0.86869929  0.91179381  0.95142606     0.36500
N2291       N  0.86222000  0.81168004  0.56689433    -0.43700
N2292       N  0.87112639  0.92923595  0.93253385    -0.43700
C2293       C  0.83758721  0.61497173  0.99896680    -0.00100
C2294       C  0.83955420  0.63273382  0.97318153    -0.12000
C2295       C  0.86117198  0.65500021  0.97054112     0.02100
C2296       C  0.88153576  0.66005488  0.99426412    -0.00200
C2297       C  0.87956646  0.64224330  0.51998098    -0.11900
C2298       C  0.85849801  0.61943552  0.52228888     0.02000
H2299       H  0.82370226  0.62960492  0.95505379     0.15000
H2300       H  0.89494854  0.64593733  0.53833184     0.15000
C2301       C  0.86029925  0.60010519  0.54801822     0.36600
C2302       C  0.86057678  0.67297023  0.94378366     0.36500
N2303       N  0.86237194  0.58460102  0.56860146    -0.43700
N2304       N  0.85971063  0.68710604  0.92213517    -0.43700
C2305       C  0.61339134  0.84100043  0.99984693    -0.00100
C2306       C  0.62581746  0.85169105  0.52663662    -0.12000
C2307       C  0.64938570  0.87208665  0.52645093     0.02100
C2308       C  0.66016592  0.88345561  0.99891834    -0.00200
C2309       C  0.64818171  0.87227752  0.97220379    -0.11900
C2310       C  0.62551550  0.85101740  0.97233889     0.02000
H2311       H  0.61762266  0.84372780  0.54797474     0.15000
H2312       H  0.65680540  0.87969599  0.95087803     0.15000
C2313       C  0.61618227  0.83943322  0.94368377     0.36600
C2314       C  0.66261955  0.87975568  0.55492362     0.36500
N2315       N  0.60919627  0.83007241  0.92059483    -0.43700
N2316       N  0.67332177  0.88545994  0.57781113    -0.43700
C2317       C  0.64903532  0.60999833  0.99682164    -0.00100
C2318       C  0.65087677  0.63248587  0.97515935    -0.12000
C2319       C  0.63058859  0.65614829  0.97499062     0.02100
C2320       C  0.60800499  0.65768281  0.99703995    -0.00200
C2321       C  0.60542876  0.63453614  0.51792688    -0.11900
C2322       C  0.62532438  0.61052299  0.51762165     0.02000
H2323       H  0.66884924  0.63214146  0.95889784     0.15000
H2324       H  0.58751506  0.63495218  0.53424710     0.15000
C2325       C  0.61995226  0.58601434  0.53776423     0.36600
C2326       C  0.63450952  0.67918675  0.95284242     0.36500
N2327       N  0.61539748  0.56618575  0.55359924    -0.43700
N2328       N  0.63774591  0.69757111  0.93502678    -0.43700
C2329       C  0.88445771  0.00416824  0.84115690    -0.00100
C2330       C  0.88409519  0.52745372  0.86197689    -0.12000
C2331       C  0.86320922  0.52810062  0.88525902     0.02100
C2332       C  0.84183212  0.00521381  0.88775729    -0.00200
C2333       C  0.84285129  0.98142787  0.86756141    -0.11900
C2334       C  0.86373150  0.98073203  0.84433003     0.02000
H2335       H  0.90037369  0.54515834  0.86025798     0.15000
H2336       H  0.82659416  0.96369326  0.86928417     0.15000
C2337       C  0.86214743  0.95642693  0.82333818     0.36600
C2338       C  0.86507800  0.55195746  0.90671813     0.36500
N2339       N  0.86066793  0.93694793  0.80654659    -0.43700
N2340       N  0.86681416  0.57112252  0.92385187    -0.43700
C2341       C  0.60886868  0.99794290  0.84120452    -0.00100
C2342       C  0.61508737  0.97232081  0.85801260    -0.12000
C2343       C  0.63713327  0.97233781  0.88028784     0.02100
C2344       C  0.65342014  0.49853651  0.88620629    -0.00200
C2345       C  0.64692294  0.52417174  0.86960752    -0.11900
C2346       C  0.62509232  0.52419105  0.84733594     0.02000
H2347       H  0.60269294  0.95211374  0.85386819     0.15000
H2348       H  0.65941887  0.54437001  0.87340818     0.15000
C2349       C  0.62082012  0.55144198  0.83078148     0.36600
C2350       C  0.64201330  0.94521973  0.89676713     0.36500
N2351       N  0.61764927  0.57336610  0.81762861    -0.43700
N2352       N  0.64549666  0.92319271  0.90962283    -0.43700
C2353       C  0.64979210  0.49809047  0.60649624    -0.00100
C2354       C  0.65002679  0.52053991  0.62819169    -0.12000
C2355       C  0.62914206  0.52086447  0.65141572     0.02100
C2356       C  0.60711069  0.49849431  0.65304048    -0.00200
C2357       C  0.60612077  0.97670625  0.63063923    -0.11900
C2358       C  0.62705439  0.97647586  0.60731907     0.02000
H2359       H  0.66734434  0.53731628  0.62771925     0.15000
H2360       H  0.58881854  0.95992541  0.63120722     0.15000
C2361       C  0.62380047  0.95466742  0.58391477     0.36600
C2362       C  0.63221466  0.54336491  0.67420897     0.36500
N2363       N  0.62082779  0.93734740  0.56504953    -0.43700
N2364       N  0.63484150  0.56130478  0.69253456    -0.43700
C2365       C  0.88704677  0.50604470  0.65207959    -0.00100
C2366       C  0.86814989  0.53067025  0.64872983    -0.12000
C2367       C  0.84490288  0.53056625  0.62784688     0.02100
C2368       C  0.84036347  0.00540495  0.60956232    -0.00200
C2369       C  0.86001047  0.98122551  0.61216614    -0.11900
C2370       C  0.88324000  0.98135020  0.63309099     0.02000
H2371       H  0.87077216  0.54976351  0.66321832     0.15000
H2372       H  0.85736028  0.96207729  0.59776196     0.15000
C2373       C  0.90319848  0.95615745  0.63386562     0.36600
C2374       C  0.82544884  0.55612874  0.62683501     0.36500
N2375       N  0.91910707  0.93590384  0.63402010    -0.43700
N2376       N  0.80994451  0.57668263  0.62612543    -0.43700
C2377       C  0.00167497  0.61598211  0.83925504    -0.00100
C2378       C  0.97703913  0.61812263  0.85861327    -0.12000
C2379       C  0.97593633  0.63974870  0.88119388     0.02100
C2380       C  0.49978555  0.65994153  0.88458706    -0.00200
C2381       C  0.52416992  0.65803189  0.86499063    -0.11900
C2382       C  0.52523885  0.63663984  0.84236898     0.02000
H2383       H  0.95877258  0.60250441  0.85642805     0.12600
H2384       H  0.54227374  0.67386708  0.86676764     0.15000
C2385       C  0.55006617  0.63782930  0.82181013     0.36600
C2386       C  0.95066843  0.63980581  0.90125179     0.36500
N2387       N  0.57004514  0.63919064  0.80544452    -0.43700
N2388       N  0.93041012  0.63953653  0.91731918    -0.43700
C2389       C  0.99170887  0.88894559  0.84086579    -0.00100
C2390       C  0.51428722  0.89076786  0.86265775    -0.12000
C2391       C  0.51638233  0.86971117  0.88567258     0.02100
C2392       C  0.99589633  0.84594739  0.88679643    -0.00200
C2393       C  0.97319291  0.84430927  0.86514058    -0.11900
C2394       C  0.97104754  0.86536536  0.84218054     0.02000
H2395       H  0.53007139  0.90898823  0.86191716     0.15000
H2396       H  0.95755795  0.82596262  0.86558476     0.15000
C2397       C  0.94873386  0.86099427  0.81922989     0.36600
C2398       C  0.53876176  0.87400478  0.90852974     0.36500
N2399       N  0.93097538  0.85733820  0.80074622    -0.43700
N2400       N  0.55658481  0.87783555  0.92690175    -0.43700
C2401       C  0.99310781  0.84309701  0.61104861    -0.00100
C2402       C  0.97207300  0.84162919  0.63424474    -0.12000
C2403       C  0.97142228  0.86302268  0.65686552     0.02100
C2404       C  0.49160456  0.88700312  0.65607417    -0.00200
C2405       C  0.51277171  0.88847841  0.63295397    -0.11900
C2406       C  0.51366106  0.86677800  0.61047442     0.02000
H2407       H  0.95661778  0.82314562  0.63523630     0.15000
H2408       H  0.52839497  0.90683739  0.63225100     0.15000
C2409       C  0.53506597  0.86994706  0.58652028     0.36600
C2410       C  0.95122420  0.85858702  0.68166090     0.36500
N2411       N  0.55216787  0.87265184  0.56729635    -0.43700
N2412       N  0.93526019  0.85479240  0.70166553    -0.43700
C2413       C  0.50266904  0.61184294  0.65346191    -0.00100
C2414       C  0.97953790  0.61072661  0.63238590    -0.12000
C2415       C  0.97769497  0.63156145  0.60916450     0.02100
C2416       C  0.49860845  0.65488348  0.60754252    -0.00200
C2417       C  0.52241052  0.65532946  0.62801972    -0.11900
C2418       C  0.52475697  0.63403934  0.65071844     0.02000
H2419       H  0.96305454  0.59316200  0.63376907     0.15000
H2420       H  0.53892002  0.67287175  0.62681572     0.15000
C2421       C  0.54928418  0.63660509  0.67157242     0.36600
C2422       C  0.95544073  0.62709600  0.58630561     0.36500
N2423       N  0.56908998  0.63875107  0.68810803    -0.43700
N2424       N  0.93790041  0.62273568  0.56781637    -0.43700
loop_ 
_geom_bond_atom_site_label_1 
_geom_bond_atom_site_label_2 
_geom_bond_distance 
_geom_bond_site_symmetry_2 
_ccdc_geom_bond_type 
C1           C38   1.457       .  S
C1          C292   1.477       .  S
C1         N1231   1.352   1_455  A
N2           N19   1.325       .  A
N2         N1236   1.318       .  A
N2          Co39   2.088       .  S
C3           C41   1.465       .  S
C3           N28   1.342       .  A
C3           H48   1.081       .  S
H4           C45   1.082       .  S
C5         C1221   1.458       .  S
C5           N29   1.338       .  A
C5           H34   1.081       .  S
Co6          N24   2.068       .  S
Co6          N14   2.077       .  S
Co6          N46   2.081       .  S
Co6          N22   2.065       .  S
Co6         Cl50   2.437   1_455  S
N7           C45   1.342       .  A
N7          N620   1.319       .  A
N7           Co8   2.083       .  S
Co8          N11   2.084       .  S
Co8          N28   2.082       .  S
Co8          N15   2.086       .  S
Co8        Cl656   2.453   1_455  S
C9          C283   1.477       .  S
C9         C1217   1.458       .  S
C9           N47   1.350   1_655  A
N10          N40   1.323       .  A
N10         N623   1.319       .  A
N10         Co43   2.077       .  S
N11          N47   1.325       .  A
N11        N1241   1.319   1_455  A
N12         C647   1.346   1_545  A
N12          N22   1.318       .  A
H13          C38   1.081       .  S
N14          N35   1.322       .  A
N14         N613   1.319   1_545  A
N15          N20   1.324       .  A
N15        N1245   1.320   1_455  A
C16          C44   1.459       .  S
C16         C268   1.477       .  S
C16        N1232   1.350       .  A
N17          C32   1.338       .  A
N17         N616   1.319   1_545  A
N17         Co39   2.077       .  S
C18        C1233   1.462       .  S
C18          N46   1.338       .  A
C18          H52   1.080       .  S
N19        C1213   1.352       .  A
N20        C1228   1.350   1_455  A
C21         C256   1.486       .  S
C21        C1230   1.462       .  S
C21          N42   1.353       .  A
N22         N634   1.318   1_545  A
N23          C49   1.341       .  A
N23         N631   1.320   1_545  A
N23         Co39   2.084       .  S
N24          C38   1.337       .  A
N24        N1214   1.318   1_455  A
N25          N53   1.322       .  A
N25         N629   1.320       .  A
N25         Co43   2.076       .  S
H26          C49   1.081       .  S
H27          C44   1.081       .  S
N28         N628   1.318       .  A
N29        N1223   1.319       .  A
N29         Co43   2.076       .  S
N30          N42   1.326       .  A
N30        N1258   1.318       .  A
N30         Co39   2.088       .  S
C31         C235   1.479       .  S
C31         C651   1.462       .  S
C31          N35   1.347   1_565  A
C32          C51   1.459       .  S
C32          H36   1.081       .  S
N33          C44   1.339       .  A
N33        N1227   1.320       .  A
N33         Co43   2.078       .  S
C37         C208   1.479       .  S
C37         C655   1.462       .  S
C37          N53   1.347       .  A
Co39      Cl1262   2.455       .  S
N40         C657   1.349       .  A
C41         C220   1.481       .  S
C41         N618   1.346       .  A
Co43      Cl1868   2.442       .  S
C45         C637   1.462       .  S
N46        N1242   1.318   1_455  A
C49         C643   1.462       .  S
Cl50       Co614   2.454   1_645  S
Cl50      Co1251   2.455       .  S
Cl50      Co1861   2.442   1_545  S
C51         C244   1.475       .  S
C51         N646   1.349   1_545  A
C54         C199   1.480       .  S
C54         C394   1.461       .  S
C54          N72   1.348       .  A
N55          N72   1.323       .  A
N55         N380   1.320       .  A
N55         Co92   2.081       .  S
C56          C94   1.457       .  S
C56          N81   1.339       .  A
C56         H101   1.082       .  S
H57          C98   1.081       .  S
C58          C62   1.462       .  S
C58          N82   1.338       .  A
C58          H87   1.078       .  S
Co59         N77   2.088       .  S
Co59         N67   2.083       .  S
Co59         N99   2.084       .  S
Co59         N75   2.089       .  S
Co59      Cl1618   2.451   1_454  S
N60          C98   1.342       .  A
N60        N1279   1.320       .  A
N60         Co61   2.086       .  S
Co61         N64   2.088       .  S
Co61         N81   2.083       .  S
Co61         N68   2.085       .  S
Co61       Cl406   2.452   1_554  S
C62         C175   1.487       .  S
C62         N403   1.353       .  A
N63          N93   1.326       .  A
N63        N1282   1.319       .  A
N63         Co96   2.086       .  S
N64         N100   1.325       .  A
N64         N385   1.318   1_554  A
N65        C1306   1.351   1_455  A
N65          N75   1.326       .  A
H66          C91   1.082       .  S
N67          N88   1.323       .  A
N67        N1272   1.320   1_455  A
N68          N73   1.324       .  A
N68         N389   1.320   1_554  A
C69          C97   1.461       .  S
C69         C160   1.483       .  S
C69         N376   1.350       .  A
N70          C85   1.338       .  A
N70        N1275   1.319   1_455  A
N70         Co92   2.081       .  S
C71         C377   1.467       .  S
C71          N99   1.342       .  A
C71         H105   1.081       .  S
N73         C372   1.350   1_554  A
C74         C184   1.489       .  S
C74         C374   1.467       .  S
C74          N95   1.348       .  A
N75        N1293   1.320   1_455  A
N76         C102   1.341       .  A
N76        N1290   1.318   1_455  A
N76         Co92   2.082       .  S
N77          C91   1.342       .  A
N77         N358   1.320   1_554  A
N78         N106   1.323       .  A
N78        N1288   1.318       .  A
N78         Co96   2.080       .  S
H79         C102   1.080       .  S
H80          C97   1.081       .  S
N81        N1287   1.320       .  A
N82         N367   1.318       .  A
N82         Co96   2.076       .  S
N83          N95   1.321       .  A
N83         N402   1.318       .  A
N83         Co92   2.076       .  S
C84         C295   1.482       .  S
C84        C1310   1.464       .  S
C84          N88   1.349   1_655  A
C85         C104   1.461   1_455  S
C85          H89   1.082       .  S
N86          C97   1.340       .  A
N86         N371   1.320       .  A
N86         Co96   2.083       .  S
C90         C271   1.480       .  S
C90        C1314   1.462       .  S
C90         N106   1.349       .  A
C91         C357   1.461   1_554  S
Co92      Cl1315   2.447   1_455  S
N93        C1316   1.352       .  A
C94         C280   1.478       .  S
C94        N1277   1.351       .  A
Co96       Cl103   2.448       .  S
C98        C1296   1.464       .  S
N99         N386   1.318   1_554  A
N100        C365   1.353   1_554  A
C102       C1302   1.462   1_455  S
Cl103     Co1574   2.451       .  S
Cl103      Co364   2.452       .  S
Cl103     Co1304   2.447       .  S
C104        C259   1.484       .  S
C104       N1305   1.352       .  A
C107        C144   1.459       .  S
C107        C247   1.478       .  S
C107        N731   1.349       .  A
N108        N125   1.322       .  A
N108        N736   1.318   1_545  A
N108       Co145   2.077       .  S
C109        C147   1.467       .  S
C109        N134   1.340       .  A
C109        H154   1.079       .  S
H110        C151   1.081       .  S
C111        C721   1.460       .  S
C111        N135   1.339       .  A
C111        H140   1.081       .  S
Co112       N130   2.070       .  S
Co112       N120   2.091       .  S
Co112       N152   2.087       .  S
Co112       N128   2.070       .  S
Co112     Cl1065   2.446   1_554  S
N113        C151   1.336       .  A
N113        N423   1.319       .  A
N113       Co114   2.071       .  S
Co114       N117   2.082       .  S
Co114       N134   2.084       .  S
Co114       N121   2.079       .  S
Co114      Cl762   2.449       .  S
C115        C211   1.479       .  S
C115        C717   1.460       .  S
C115        N153   1.350       .  A
N116        N146   1.324       .  A
N116        N426   1.318       .  A
N116       Co149   2.086       .  S
N117        N153   1.323       .  A
N117        N741   1.318       .  A
N118        C450   1.348   1_554  A
N118        N128   1.322       .  A
H119        C144   1.081       .  S
N120        N141   1.325       .  A
N120        N416   1.319   1_554  A
N121        N126   1.324       .  A
N121        N745   1.319       .  A
C122        C150   1.461       .  S
C122        C223   1.481   1_545  S
C122        N732   1.350   1_545  A
N123        C138   1.341       .  A
N123        N419   1.318   1_554  A
N123       Co145   2.084       .  S
C124        C733   1.462       .  S
C124        N152   1.341       .  A
C124        H158   1.080       .  S
N125        C713   1.349       .  A
N126        C728   1.350       .  A
C127        C232   1.478       .  S
C127        C730   1.462       .  S
C127        N148   1.349   1_565  A
N128        N437   1.317   1_554  A
N129        C155   1.339       .  A
N129        N434   1.318   1_554  A
N129       Co145   2.080       .  S
N130        C144   1.337       .  A
N130        N714   1.318       .  A
N131        N159   1.325       .  A
N131        N432   1.318       .  A
N131       Co149   2.082       .  S
H132        C155   1.081       .  S
H133        C150   1.081       .  S
N134        N431   1.317       .  A
N135        N723   1.318   1_545  A
N135       Co149   2.075       .  S
N136        N148   1.323       .  A
N136        N758   1.319   1_545  A
N136       Co145   2.079       .  S
C137        C151   1.459       .  S
C137        C163   1.481       .  S
C137        N444   1.353       .  A
C138        C460   1.464       .  S
C138        H142   1.080       .  S
N139        C150   1.335       .  A
N139        N727   1.319   1_545  A
N139       Co149   2.078       .  S
N141        C440   1.353   1_554  A
C143        C196   1.479       .  S
C143        C458   1.460       .  S
C143        N159   1.351       .  A
Co145      Cl459   2.448   1_554  S
N146        C157   1.352       .  A
C147        C187   1.488       .  S
C147        N421   1.348       .  A
Co149      Cl156   2.447       .  S
N152        N742   1.319       .  A
C155        C446   1.460   1_554  S
Cl156     Co1021   2.446   1_545  S
Cl156      Co720   2.449   1_545  S
Cl156      Co448   2.448       .  S
C157        C172   1.486       .  S
C157        C441   1.464       .  S
C160        C161   1.404       .  A
C160        C468   1.414       .  A
C161        H166   1.085       .  S
C161        C162   1.400       .  A
C162        C163   1.414       .  A
C162        C169   1.445       .  S
C163        C467   1.403       .  A
C164        H167   1.085       .  S
C164        C165   1.400       .  A
C164        C466   1.403   1_554  A
C165        C463   1.414   1_554  A
C165        C168   1.444       .  S
C168        N170   1.157       .  T
C169        N171   1.158       .  T
C172        C173   1.404       .  A
C172        C480   1.414       .  A
C173        H178   1.085       .  S
C173        C174   1.401       .  A
C174        C175   1.416       .  A
C174        C181   1.443       .  S
C175        C479   1.402       .  A
C176        H179   1.083       .  S
C176        C177   1.401       .  A
C176        C478   1.402   1_554  A
C177        C475   1.414   1_554  A
C177        C180   1.443       .  S
C180        N182   1.157       .  T
C181        N183   1.158       .  T
C184        C189   1.417       .  A
C184        C488   1.405       .  A
C185        H190   1.082       .  S
C185        C186   1.401       .  A
C185        C487   1.405   1_554  A
C186        C490   1.417   1_554  A
C186        C193   1.445       .  S
C187        C188   1.402       .  A
C187        C489   1.417       .  A
C188        H191   1.081       .  S
C188        C189   1.397       .  A
C189        C192   1.444       .  S
C192        N194   1.157       .  T
C193        N195   1.158       .  T
C196        C197   1.403       .  A
C196        C504   1.412       .  A
C197        H202   1.085       .  S
C197        C198   1.400       .  A
C198        C199   1.414       .  A
C198        C205   1.444       .  S
C199        C503   1.404       .  A
C200        H203   1.085       .  S
C200        C201   1.401       .  A
C200        C502   1.404   1_554  A
C201        C499   1.412   1_554  A
C201        C204   1.444       .  S
C204        N206   1.158       .  T
C205        N207   1.157       .  T
C208        C213   1.415       .  A
C208        C815   1.403       .  A
C209        H214   1.085       .  S
C209        C210   1.399       .  A
C209        C814   1.403       .  A
C210        C817   1.413       .  A
C210        C217   1.444       .  S
C211        C212   1.403       .  A
C211        C816   1.413       .  A
C212        H215   1.085       .  S
C212        C213   1.398       .  A
C213        C216   1.445       .  S
C216        N218   1.157       .  T
C217        N219   1.158       .  T
C220        C221   1.404       .  A
C220        C831   1.416       .  A
C221        H226   1.084       .  S
C221        C222   1.400       .  A
C222        C829   1.414       .  A
C222        C229   1.442       .  S
C223        C224   1.402   1_565  A
C223        C828   1.414       .  A
C224        H227   1.083       .  S
C224        C225   1.393       .  A
C225        C826   1.416   1_545  A
C225        C228   1.445       .  S
C228        N230   1.157       .  T
C229        N231   1.157       .  T
C232        C233   1.402   1_565  A
C232        C843   1.412       .  A
C233        H238   1.084       .  S
C233        C234   1.397       .  A
C234        C235   1.414   1_545  A
C234        C241   1.445       .  S
C235        C842   1.404       .  A
C236        H239   1.084       .  S
C236        C237   1.402       .  A
C236        C841   1.404       .  A
C237        C838   1.412       .  A
C237        C240   1.443       .  S
C240        N242   1.157       .  T
C241        N243   1.157       .  T
C244        C245   1.403       .  A
C244        C855   1.411   1_545  A
C245        H250   1.084       .  S
C245        C246   1.397       .  A
C246        C853   1.414       .  A
C246        C253   1.444       .  S
C247        C248   1.404       .  A
C247        C852   1.414       .  A
C248        H251   1.084       .  S
C248        C249   1.397       .  A
C249        C850   1.411       .  A
C249        C252   1.444       .  S
C252        N254   1.157       .  T
C253        N255   1.157       .  T
C256        C257   1.406       .  A
C256       C1473   1.415       .  A
C257        H262   1.085       .  S
C257        C258   1.404       .  A
C258       C1471   1.413       .  A
C258        C265   1.444       .  S
C259        C260   1.403   1_655  A
C259       C1470   1.413       .  A
C260        H263   1.084       .  S
C260        C261   1.398       .  A
C261       C1468   1.415       .  A
C261        C264   1.444       .  S
C264        N266   1.157       .  T
C265        N267   1.157       .  T
C268        C273   1.412       .  A
C268       C1481   1.402       .  A
C269        H274   1.085       .  S
C269        C270   1.401       .  A
C269       C1480   1.403   1_455  A
C270       C1483   1.412   1_455  A
C270        C277   1.443       .  S
C271        C272   1.404       .  A
C271       C1482   1.413       .  A
C272        H275   1.085       .  S
C272        C273   1.399       .  A
C273        C276   1.444       .  S
C276        N278   1.157       .  T
C277        N279   1.157       .  T
C280        C281   1.402       .  A
C280       C1497   1.412       .  A
C281        H286   1.085       .  S
C281        C282   1.398       .  A
C282       C1495   1.412       .  A
C282        C289   1.444       .  S
C283        C284   1.404   1_655  A
C283       C1494   1.412       .  A
C284        H287   1.085       .  S
C284        C285   1.403       .  A
C285       C1492   1.412   1_455  A
C285        C288   1.444       .  S
C288        N290   1.157       .  T
C289        N291   1.157       .  T
C292        C297   1.414       .  A
C292       C1505   1.402   1_455  A
C293        H298   1.085       .  S
C293        C294   1.400       .  A
C293       C1504   1.402       .  A
C294       C1507   1.412       .  A
C294        C301   1.440       .  S
C295        C296   1.404   1_655  A
C295       C1506   1.412       .  A
C296        H299   1.085       .  S
C296        C297   1.399       .  A
C297        C300   1.444       .  S
C300        N302   1.157       .  T
C301        N303   1.156       .  T
C304        C341   1.457       .  S
C304        C595   1.477       .  S
C304       N1534   1.352   1_455  A
N305        N322   1.325       .  A
N305       N1539   1.318       .  A
N305       Co342   2.088       .  S
C306        C344   1.465       .  S
C306        N331   1.342       .  A
C306        H351   1.081       .  S
H307        C348   1.082       .  S
C308       C1524   1.458       .  S
C308        N332   1.338       .  A
C308        H337   1.081       .  S
Co309       N327   2.068       .  S
Co309       N317   2.076       .  S
Co309       N349   2.082       .  S
Co309       N325   2.065       .  S
Co309      Cl353   2.436   1_455  S
N310        C348   1.342       .  A
N310        N923   1.319       .  A
N310       Co311   2.083       .  S
Co311       N314   2.084       .  S
Co311       N331   2.082       .  S
Co311       N318   2.086       .  S
Co311      Cl959   2.453   1_455  S
C312       C1520   1.458       .  S
C312        C586   1.477       .  S
C312        N350   1.350   1_655  A
N313        N926   1.319       .  A
N313        N343   1.323       .  A
N313       Co346   2.077       .  S
N314       N1544   1.319   1_455  A
N314        N350   1.325       .  A
N315        C950   1.346   1_545  A
N315        N325   1.318       .  A
H316        C341   1.081       .  S
N317        N916   1.319   1_545  A
N317        N338   1.321       .  A
N318       N1548   1.320   1_455  A
N318        N323   1.324       .  A
C319        C347   1.459       .  S
C319        C571   1.477       .  S
C319       N1535   1.350       .  A
N320        C335   1.338       .  A
N320        N919   1.319   1_545  A
N320       Co342   2.077       .  S
C321       C1536   1.462       .  S
C321        N349   1.338       .  A
C321        H355   1.080       .  S
N322       C1516   1.352       .  A
N323       C1531   1.350   1_455  A
C324       C1533   1.462       .  S
C324        C559   1.486       .  S
C324        N345   1.353       .  A
N325        N937   1.318   1_545  A
N326        C352   1.341       .  A
N326        N934   1.320   1_545  A
N326       Co342   2.084       .  S
N327        C341   1.337       .  A
N327       N1517   1.318   1_455  A
N328        N932   1.320       .  A
N328        N356   1.322       .  A
N328       Co346   2.076       .  S
H329        C352   1.081       .  S
H330        C347   1.081       .  S
N331        N931   1.318       .  A
N332       N1526   1.319       .  A
N332       Co346   2.076       .  S
N333        N345   1.326       .  A
N333       N1561   1.318       .  A
N333       Co342   2.088       .  S
C334        C954   1.462       .  S
C334        C538   1.479       .  S
C334        N338   1.347   1_565  A
C335        C354   1.459       .  S
C335        H339   1.081       .  S
N336        C347   1.339       .  A
N336       N1530   1.320       .  A
N336       Co346   2.078       .  S
C340        C958   1.462       .  S
C340        C511   1.479       .  S
C340        N356   1.347       .  A
Co342     Cl1565   2.455       .  S
N343        C960   1.349       .  A
C344        C523   1.481       .  S
C344        N921   1.346       .  A
Co346     Cl2171   2.442       .  S
C348        C940   1.462       .  S
N349       N1545   1.319   1_455  A
C352        C946   1.462       .  S
Cl353      Co917   2.453   1_645  S
Cl353     Co1554   2.455       .  S
Cl353     Co2164   2.443   1_545  S
C354        C547   1.475       .  S
C354        N949   1.349   1_545  A
C357        C502   1.480       .  S
C357        N375   1.348       .  A
N358        N375   1.323       .  A
N358       Co395   2.081       .  S
C359        C397   1.457       .  S
C359        N384   1.339       .  A
C359        H404   1.082       .  S
H360        C401   1.081       .  S
C361        C365   1.462       .  S
C361        N385   1.338       .  A
C361        H390   1.078       .  S
Co362       N380   2.088       .  S
Co362       N370   2.083       .  S
Co362       N402   2.084       .  S
Co362       N378   2.089       .  S
Co362     Cl1315   2.451   1_455  S
N363        C401   1.342       .  A
N363       N1582   1.320       .  A
N363       Co364   2.086       .  S
Co364       N367   2.088       .  S
Co364       N384   2.083       .  S
Co364       N371   2.085       .  S
C365        C478   1.487       .  S
N366       N1585   1.319       .  A
N366        N396   1.326       .  A
N366       Co399   2.086       .  S
N367        N403   1.325       .  A
N368       C1609   1.351   1_455  A
N368        N378   1.326       .  A
H369        C394   1.082       .  S
N370       N1575   1.320   1_455  A
N370        N391   1.323       .  A
N371        N376   1.324       .  A
C372        C400   1.461       .  S
C372        C463   1.483       .  S
N373        C388   1.338       .  A
N373       N1578   1.319   1_455  A
N373       Co395   2.081       .  S
C374        N402   1.342       .  A
C374        H408   1.081       .  S
C377        C487   1.489   1_554  S
C377        N398   1.348   1_554  A
N378       N1596   1.320   1_455  A
N379        C405   1.341       .  A
N379       N1593   1.318   1_455  A
N379       Co395   2.082       .  S
N380        C394   1.342       .  A
N381       N1591   1.318       .  A
N381        N409   1.323       .  A
N381       Co399   2.080       .  S
H382        C405   1.080       .  S
H383        C400   1.081       .  S
N384       N1590   1.320       .  A
N385       Co399   2.076       .  S
N386        N398   1.321       .  A
N386       Co395   2.076       .  S
C387       C1613   1.464       .  S
C387        C598   1.482       .  S
C387        N391   1.349   1_655  A
C388        C407   1.461   1_455  S
C388        H392   1.082       .  S
N389        C400   1.340       .  A
N389       Co399   2.083       .  S
C393       C1617   1.462       .  S
C393        C574   1.480       .  S
C393        N409   1.349       .  A
Co395     Cl1618   2.447   1_455  S
N396       C1619   1.352       .  A
C397        C583   1.478       .  S
C397       N1580   1.351       .  A
Co399      Cl406   2.448       .  S
C401       C1599   1.464       .  S
C405       C1605   1.462   1_455  S
Cl406     Co1271   2.451   1_556  S
Cl406     Co1607   2.447       .  S
C407        C562   1.484       .  S
C407       N1608   1.352       .  A
C410        C447   1.459       .  S
C410        C550   1.478       .  S
C410       N1034   1.349       .  A
N411        N428   1.322       .  A
N411       N1039   1.318   1_545  A
N411       Co448   2.077       .  S
C412        C450   1.467       .  S
C412        N437   1.340       .  A
C412        H457   1.080       .  S
H413        C454   1.081       .  S
C414       C1024   1.460       .  S
C414        N438   1.339       .  A
C414        H443   1.081       .  S
Co415       N433   2.070       .  S
Co415       N423   2.091       .  S
Co415       N455   2.087       .  S
Co415       N431   2.070       .  S
Co415      Cl762   2.446       .  S
N416        C454   1.336       .  A
N416       Co417   2.071       .  S
Co417       N420   2.082       .  S
Co417       N437   2.084       .  S
Co417       N424   2.079       .  S
Co417     Cl1065   2.449       .  S
C418       C1020   1.460       .  S
C418        C514   1.478       .  S
C418        N456   1.350       .  A
N419        N449   1.324       .  A
N419       Co452   2.086       .  S
N420       N1044   1.318       .  A
N420        N456   1.323       .  A
N421        N431   1.322       .  A
H422        C447   1.081       .  S
N423        N444   1.325       .  A
N424       N1048   1.319       .  A
N424        N429   1.324       .  A
C425        C453   1.461       .  S
C425        C526   1.481   1_545  S
C425       N1035   1.350   1_545  A
N426        C441   1.341       .  A
N426       Co448   2.084       .  S
C427       C1036   1.462       .  S
C427        N455   1.341       .  A
C427        H461   1.080       .  S
N428       C1016   1.349       .  A
N429       C1031   1.350       .  A
C430       C1033   1.462       .  S
C430        C535   1.478       .  S
C430        N451   1.349   1_565  A
N432        C458   1.339       .  A
N432       Co448   2.080       .  S
N433        C447   1.337       .  A
N433       N1017   1.318       .  A
N434        N462   1.325       .  A
N434       Co452   2.082       .  S
H435        C458   1.081       .  S
H436        C453   1.081       .  S
N438       N1026   1.318   1_545  A
N438       Co452   2.075       .  S
N439        N451   1.323       .  A
N439       N1061   1.319   1_545  A
N439       Co448   2.079       .  S
C440        C454   1.459       .  S
C440        C466   1.481       .  S
C441        H445   1.080       .  S
N442        C453   1.335       .  A
N442       N1030   1.319   1_545  A
N442       Co452   2.078       .  S
C446        C499   1.479       .  S
C446        N462   1.351       .  A
N449        C460   1.352   1_556  A
C450        C490   1.488       .  S
Co452      Cl459   2.447       .  S
N455       N1045   1.319       .  A
Cl459      Co718   2.446   1_546  S
Cl459     Co1023   2.449   1_545  S
C460        C475   1.486   1_554  S
C463        C464   1.404       .  A
C464        H469   1.085       .  S
C464        C465   1.400       .  A
C465        C466   1.414       .  A
C465        C472   1.445       .  S
C467        H470   1.085       .  S
C467        C468   1.400       .  A
C468        C471   1.444       .  S
C471        N473   1.157       .  T
C472        N474   1.158       .  T
C475        C476   1.404       .  A
C476        H481   1.085       .  S
C476        C477   1.401       .  A
C477        C478   1.416       .  A
C477        C484   1.443       .  S
C479        H482   1.083       .  S
C479        C480   1.401       .  A
C480        C483   1.443       .  S
C483        N485   1.157       .  T
C484        N486   1.158       .  T
C487        C492   1.417       .  A
C488        H493   1.082       .  S
C488        C489   1.401       .  A
C489        C496   1.445       .  S
C490        C491   1.402       .  A
C491        H494   1.081       .  S
C491        C492   1.397       .  A
C492        C495   1.444       .  S
C495        N497   1.157       .  T
C496        N498   1.158       .  T
C499        C500   1.403       .  A
C500        H505   1.085       .  S
C500        C501   1.400       .  A
C501        C502   1.414       .  A
C501        C508   1.444       .  S
C503        H506   1.085       .  S
C503        C504   1.401       .  A
C504        C507   1.444       .  S
C507        N509   1.158       .  T
C508        N510   1.157       .  T
C511       C1118   1.403       .  A
C511        C516   1.415       .  A
C512        H517   1.085       .  S
C512       C1117   1.403       .  A
C512        C513   1.399       .  A
C513       C1120   1.413       .  A
C513        C520   1.444       .  S
C514       C1119   1.413       .  A
C514        C515   1.403       .  A
C515        H518   1.085       .  S
C515        C516   1.398       .  A
C516        C519   1.445       .  S
C519        N521   1.157       .  T
C520        N522   1.158       .  T
C523        C524   1.404       .  A
C523       C1134   1.416       .  A
C524        H529   1.084       .  S
C524        C525   1.400       .  A
C525       C1132   1.414       .  A
C525        C532   1.442       .  S
C526       C1131   1.414       .  A
C526        C527   1.402   1_565  A
C527        H530   1.083       .  S
C527        C528   1.393       .  A
C528       C1129   1.416   1_545  A
C528        C531   1.445       .  S
C531        N533   1.157       .  T
C532        N534   1.157       .  T
C535        C536   1.402   1_565  A
C535       C1146   1.412       .  A
C536        H541   1.084       .  S
C536        C537   1.397       .  A
C537        C538   1.414   1_545  A
C537        C544   1.445       .  S
C538       C1145   1.404       .  A
C539        H542   1.084       .  S
C539       C1144   1.404       .  A
C539        C540   1.402       .  A
C540       C1141   1.412       .  A
C540        C543   1.443       .  S
C543        N545   1.157       .  T
C544        N546   1.157       .  T
C547        C548   1.403       .  A
C547       C1158   1.411   1_545  A
C548        H553   1.084       .  S
C548        C549   1.397       .  A
C549       C1156   1.414       .  A
C549        C556   1.444       .  S
C550       C1155   1.414       .  A
C550        C551   1.404       .  A
C551        H554   1.084       .  S
C551        C552   1.397       .  A
C552       C1153   1.411       .  A
C552        C555   1.444       .  S
C555        N557   1.157       .  T
C556        N558   1.157       .  T
C559        C560   1.406       .  A
C559       C1776   1.415       .  A
C560        H565   1.085       .  S
C560        C561   1.404       .  A
C561       C1774   1.413       .  A
C561        C568   1.444       .  S
C562       C1773   1.413       .  A
C562        C563   1.403   1_655  A
C563        H566   1.084       .  S
C563        C564   1.398       .  A
C564       C1771   1.415       .  A
C564        C567   1.444       .  S
C567        N569   1.157       .  T
C568        N570   1.157       .  T
C571       C1784   1.402       .  A
C571        C576   1.412       .  A
C572        H577   1.085       .  S
C572       C1783   1.403   1_455  A
C572        C573   1.401       .  A
C573       C1786   1.412   1_455  A
C573        C580   1.443       .  S
C574       C1785   1.413       .  A
C574        C575   1.404       .  A
C575        H578   1.085       .  S
C575        C576   1.399       .  A
C576        C579   1.444       .  S
C579        N581   1.157       .  T
C580        N582   1.157       .  T
C583        C584   1.402       .  A
C583       C1800   1.412       .  A
C584        H589   1.085       .  S
C584        C585   1.398       .  A
C585       C1798   1.412       .  A
C585        C592   1.444       .  S
C586       C1797   1.412       .  A
C586        C587   1.404   1_655  A
C587        H590   1.085       .  S
C587        C588   1.403       .  A
C588       C1795   1.412   1_455  A
C588        C591   1.444       .  S
C591        N593   1.157       .  T
C592        N594   1.157       .  T
C595       C1808   1.402   1_455  A
C595        C600   1.414       .  A
C596        H601   1.085       .  S
C596       C1807   1.402       .  A
C596        C597   1.400       .  A
C597       C1810   1.412       .  A
C597        C604   1.440       .  S
C598       C1809   1.412       .  A
C598        C599   1.404   1_655  A
C599        H602   1.085       .  S
C599        C600   1.399       .  A
C600        C603   1.444       .  S
C603        N605   1.157       .  T
C604        N606   1.156       .  T
C607        C644   1.457       .  S
C607        C898   1.478       .  S
C607       N1837   1.352   1_455  A
N608        N625   1.325       .  A
N608       N1842   1.318       .  A
N608       Co645   2.088       .  S
C609        C647   1.465       .  S
C609        N634   1.342       .  A
C609        H654   1.081       .  S
H610        C651   1.082       .  S
C611       C1827   1.458       .  S
C611        N635   1.338       .  A
C611        H640   1.081       .  S
Co612       N630   2.068       .  S
Co612       N620   2.076       .  S
Co612       N652   2.082       .  S
Co612       N628   2.065       .  S
Co612      Cl656   2.436   1_455  S
N613        C651   1.342       .  A
N613       Co614   2.083       .  S
Co614       N617   2.083       .  S
Co614       N634   2.082       .  S
Co614       N621   2.086       .  S
C615       C1823   1.458       .  S
C615        C889   1.477       .  S
C615        N653   1.350   1_655  A
N616        N646   1.323       .  A
N616       Co649   2.077       .  S
N617       N1847   1.319   1_455  A
N617        N653   1.325       .  A
N618        N628   1.318       .  A
H619        C644   1.081       .  S
N620        N641   1.321       .  A
N621       N1851   1.320   1_455  A
N621        N626   1.324       .  A
C622        C650   1.459       .  S
C622        C874   1.477       .  S
C622       N1838   1.350       .  A
N623        C638   1.338       .  A
N623       Co645   2.077       .  S
C624       C1839   1.462       .  S
C624        N652   1.338       .  A
C624        H658   1.080       .  S
N625       C1819   1.352       .  A
N626       C1834   1.350   1_455  A
C627       C1836   1.462       .  S
C627        C862   1.486       .  S
C627        N648   1.353       .  A
N629        C655   1.341       .  A
N629       Co645   2.084       .  S
N630        C644   1.337       .  A
N630       N1820   1.318   1_455  A
N631        N659   1.322       .  A
N631       Co649   2.076       .  S
H632        C655   1.081       .  S
H633        C650   1.081       .  S
N635       N1829   1.319       .  A
N635       Co649   2.076       .  S
N636        N648   1.326       .  A
N636       N1864   1.318       .  A
N636       Co645   2.088       .  S
C637        C841   1.479       .  S
C637        N641   1.347       .  A
C638        C657   1.459       .  S
C638        H642   1.081       .  S
N639        C650   1.339       .  A
N639       N1833   1.320       .  A
N639       Co649   2.078       .  S
C643        C814   1.479       .  S
C643        N659   1.347   1_545  A
Co645     Cl1868   2.455       .  S
C647        C826   1.481       .  S
Co649     Cl1262   2.442   1_565  S
N652       N1848   1.319   1_455  A
Cl656     Co1857   2.455       .  S
Cl656     Co1255   2.443       .  S
C657        C850   1.475       .  S
C660       C1000   1.461       .  S
C660        C805   1.480       .  S
C660        N678   1.348       .  A
N661        N678   1.323       .  A
N661        N986   1.320       .  A
N661       Co698   2.081       .  S
C662        C700   1.457       .  S
C662        N687   1.339       .  A
C662        H707   1.082       .  S
H663        C704   1.081       .  S
C664        C668   1.462       .  S
C664        N688   1.338       .  A
C664        H693   1.078       .  S
Co665       N683   2.088       .  S
Co665       N673   2.083       .  S
Co665       N705   2.084       .  S
Co665       N681   2.089       .  S
Co665     Cl2224   2.451   1_454  S
N666        C704   1.342       .  A
N666       N1885   1.320       .  A
N666       Co667   2.086       .  S
Co667       N670   2.088       .  S
Co667       N687   2.083       .  S
Co667       N674   2.085       .  S
Co667     Cl1012   2.452   1_554  S
C668        C781   1.487       .  S
C668       N1009   1.353       .  A
N669       N1888   1.319       .  A
N669        N699   1.326       .  A
N669       Co702   2.086       .  S
N670        N991   1.318   1_554  A
N670        N706   1.325       .  A
N671       C1912   1.351   1_455  A
N671        N681   1.326       .  A
H672        C697   1.082       .  S
N673       N1878   1.320   1_455  A
N673        N694   1.323       .  A
N674        N995   1.320   1_554  A
N674        N679   1.324       .  A
C675        C703   1.461       .  S
C675        C766   1.483       .  S
C675        N982   1.350       .  A
N676        C691   1.338       .  A
N676       N1881   1.319   1_455  A
N676       Co698   2.081       .  S
C677        C983   1.467       .  S
C677        N705   1.342       .  A
C677        H711   1.081       .  S
N679        C978   1.350   1_554  A
C680        C980   1.467       .  S
C680        C790   1.489       .  S
C680        N701   1.348       .  A
N681       N1899   1.320   1_455  A
N682        C708   1.341       .  A
N682       N1896   1.318   1_455  A
N682       Co698   2.082       .  S
N683        C697   1.342       .  A
N683        N964   1.320   1_554  A
N684       N1894   1.318       .  A
N684        N712   1.323       .  A
N684       Co702   2.080       .  S
H685        C708   1.080       .  S
H686        C703   1.081       .  S
N687       N1893   1.320       .  A
N688        N973   1.318       .  A
N688       Co702   2.076       .  S
N689        N701   1.321       .  A
N689       N1008   1.318       .  A
N689       Co698   2.076       .  S
C690       C1916   1.464       .  S
C690        C901   1.482       .  S
C690        N694   1.349   1_655  A
C691        C710   1.461   1_455  S
C691        H695   1.082       .  S
N692        C703   1.340       .  A
N692        N977   1.320       .  A
N692       Co702   2.083       .  S
C696       C1920   1.462       .  S
C696        C877   1.480       .  S
C696        N712   1.349       .  A
C697        C963   1.461   1_554  S
Co698     Cl1921   2.447   1_455  S
N699       C1922   1.352       .  A
C700        C886   1.478       .  S
C700       N1883   1.351       .  A
Co702      Cl709   2.448       .  S
C704       C1902   1.464       .  S
N705        N992   1.318   1_554  A
N706        C971   1.353   1_554  A
C708       C1908   1.462   1_455  S
Cl709     Co2180   2.451       .  S
Cl709      Co970   2.452       .  S
Cl709     Co1910   2.447       .  S
C710        C865   1.484       .  S
C710       N1911   1.352       .  A
C713        C750   1.459   1_545  S
C713        C853   1.478       .  S
N714        N731   1.322       .  A
N714       Co751   2.077       .  S
C715        C753   1.467       .  S
C715        N740   1.340       .  A
C715        H760   1.079       .  S
H716        C757   1.081       .  S
C717        N741   1.339       .  A
C717        H746   1.081       .  S
Co718       N736   2.070       .  S
Co718       N726   2.091       .  S
Co718       N758   2.087       .  S
Co718       N734   2.070       .  S
N719        C757   1.336       .  A
N719       N1029   1.319       .  A
N719       Co720   2.071       .  S
Co720       N723   2.082       .  S
Co720       N740   2.084       .  S
Co720       N727   2.079       .  S
C721        C817   1.479       .  S
C721        N759   1.350   1_545  A
N722       N1032   1.318       .  A
N722        N752   1.324       .  A
N722       Co755   2.086       .  S
N723        N759   1.323       .  A
N724       C1056   1.348   1_554  A
N724        N734   1.322       .  A
H725        C750   1.081       .  S
N726       N1022   1.319   1_554  A
N726        N747   1.325       .  A
N727        N732   1.324       .  A
C728        C756   1.461       .  S
C728        C829   1.481       .  S
N729        C744   1.341       .  A
N729       N1025   1.318   1_554  A
N729       Co751   2.084       .  S
C730        N758   1.341       .  A
C730        H764   1.080       .  S
C733        C838   1.478       .  S
C733        N754   1.349       .  A
N734       N1043   1.317   1_554  A
N735        C761   1.339       .  A
N735       N1040   1.318   1_554  A
N735       Co751   2.080       .  S
N736        C750   1.337       .  A
N737       N1038   1.318       .  A
N737        N765   1.325       .  A
N737       Co755   2.082       .  S
H738        C761   1.081       .  S
H739        C756   1.081       .  S
N740       N1037   1.317       .  A
N741       Co755   2.075       .  S
N742        N754   1.323       .  A
N742       Co751   2.079       .  S
C743        C757   1.459       .  S
C743        C769   1.482       .  S
C743       N1050   1.353       .  A
C744       C1066   1.464       .  S
C744        H748   1.080       .  S
N745        C756   1.335       .  A
N745       Co755   2.078       .  S
N747       C1046   1.353   1_554  A
C749       C1064   1.460       .  S
C749        C802   1.479       .  S
C749        N765   1.351       .  A
Co751     Cl1065   2.448   1_554  S
N752        C763   1.352       .  A
C753        C793   1.488       .  S
C753       N1027   1.348       .  A
Co755      Cl762   2.447       .  S
C761       C1052   1.460   1_554  S
Cl762     Co1054   2.448       .  S
C763       C1047   1.464       .  S
C763        C778   1.486       .  S
C766        C767   1.404       .  A
C766       C1074   1.414       .  A
C767        H772   1.085       .  S
C767        C768   1.400       .  A
C768        C769   1.414       .  A
C768        C775   1.445       .  S
C769       C1073   1.403       .  A
C770        H773   1.085       .  S
C770       C1072   1.403   1_554  A
C770        C771   1.400       .  A
C771       C1069   1.414   1_554  A
C771        C774   1.444       .  S
C774        N776   1.157       .  T
C775        N777   1.158       .  T
C778        C779   1.404       .  A
C778       C1086   1.414       .  A
C779        H784   1.085       .  S
C779        C780   1.401       .  A
C780        C781   1.416       .  A
C780        C787   1.443       .  S
C781       C1085   1.402       .  A
C782        H785   1.083       .  S
C782       C1084   1.402   1_554  A
C782        C783   1.401       .  A
C783       C1081   1.414   1_554  A
C783        C786   1.443       .  S
C786        N788   1.157       .  T
C787        N789   1.158       .  T
C790       C1094   1.405       .  A
C790        C795   1.417       .  A
C791        H796   1.082       .  S
C791       C1093   1.405   1_554  A
C791        C792   1.401       .  A
C792       C1096   1.417   1_554  A
C792        C799   1.445       .  S
C793       C1095   1.417       .  A
C793        C794   1.402       .  A
C794        H797   1.081       .  S
C794        C795   1.397       .  A
C795        C798   1.444       .  S
C798        N800   1.157       .  T
C799        N801   1.158       .  T
C802        C803   1.403       .  A
C802       C1110   1.412       .  A
C803        H808   1.085       .  S
C803        C804   1.400       .  A
C804        C805   1.414       .  A
C804        C811   1.444       .  S
C805       C1109   1.404       .  A
C806        H809   1.085       .  S
C806       C1108   1.404   1_554  A
C806        C807   1.401       .  A
C807       C1105   1.412   1_554  A
C807        C810   1.444       .  S
C810        N812   1.158       .  T
C811        N813   1.157       .  T
C814        C819   1.415   1_545  A
C815        H820   1.085       .  S
C815        C816   1.399       .  A
C816        C823   1.444       .  S
C817        C818   1.403   1_545  A
C818        H821   1.085       .  S
C818        C819   1.398       .  A
C819        C822   1.445       .  S
C822        N824   1.157       .  T
C823        N825   1.158       .  T
C826        C827   1.404       .  A
C827        H832   1.084       .  S
C827        C828   1.400       .  A
C828        C835   1.442       .  S
C829        C830   1.402       .  A
C830        H833   1.083       .  S
C830        C831   1.393       .  A
C831        C834   1.445       .  S
C834        N836   1.157       .  T
C835        N837   1.157       .  T
C838        C839   1.402       .  A
C839        H844   1.084       .  S
C839        C840   1.397       .  A
C840        C841   1.414       .  A
C840        C847   1.445       .  S
C842        H845   1.084       .  S
C842        C843   1.402       .  A
C843        C846   1.443       .  S
C846        N848   1.157       .  T
C847        N849   1.157       .  T
C850        C851   1.403       .  A
C851        H856   1.084       .  S
C851        C852   1.397       .  A
C852        C859   1.444       .  S
C853        C854   1.404   1_545  A
C854        H857   1.084       .  S
C854        C855   1.397       .  A
C855        C858   1.445       .  S
C858        N860   1.157       .  T
C859        N861   1.157       .  T
C862        C863   1.406       .  A
C862       C2079   1.415       .  A
C863        H868   1.085       .  S
C863        C864   1.404       .  A
C864       C2077   1.413       .  A
C864        C871   1.444       .  S
C865       C2076   1.413       .  A
C865        C866   1.403   1_655  A
C866        H869   1.084       .  S
C866        C867   1.398       .  A
C867       C2074   1.415       .  A
C867        C870   1.444       .  S
C870        N872   1.157       .  T
C871        N873   1.157       .  T
C874       C2087   1.402       .  A
C874        C879   1.412       .  A
C875        H880   1.085       .  S
C875       C2086   1.402   1_455  A
C875        C876   1.401       .  A
C876       C2089   1.412   1_455  A
C876        C883   1.443       .  S
C877       C2088   1.413       .  A
C877        C878   1.404       .  A
C878        H881   1.085       .  S
C878        C879   1.399       .  A
C879        C882   1.444       .  S
C882        N884   1.157       .  T
C883        N885   1.157       .  T
C886        C887   1.402       .  A
C886       C2103   1.412       .  A
C887        H892   1.085       .  S
C887        C888   1.398       .  A
C888       C2101   1.412       .  A
C888        C895   1.444       .  S
C889       C2100   1.412       .  A
C889        C890   1.404   1_655  A
C890        H893   1.085       .  S
C890        C891   1.403       .  A
C891       C2098   1.412   1_455  A
C891        C894   1.444       .  S
C894        N896   1.157       .  T
C895        N897   1.157       .  T
C898       C2111   1.402   1_455  A
C898        C903   1.414       .  A
C899        H904   1.085       .  S
C899       C2110   1.402       .  A
C899        C900   1.400       .  A
C900       C2113   1.412       .  A
C900        C907   1.440       .  S
C901       C2112   1.412       .  A
C901        C902   1.404   1_655  A
C902        H905   1.085       .  S
C902        C903   1.399       .  A
C903        C906   1.444       .  S
C906        N908   1.157       .  T
C907        N909   1.156       .  T
C910        C947   1.457       .  S
C910       C1201   1.477       .  S
C910       N2140   1.352   1_455  A
N911        N928   1.325       .  A
N911       N2145   1.318       .  A
N911       Co948   2.088       .  S
C912        C950   1.465       .  S
C912        N937   1.342       .  A
C912        H957   1.081       .  S
H913        C954   1.082       .  S
C914       C2130   1.458       .  S
C914        N938   1.338       .  A
C914        H943   1.081       .  S
Co915       N933   2.068       .  S
Co915       N923   2.076       .  S
Co915       N955   2.082       .  S
Co915       N931   2.065       .  S
Co915      Cl959   2.436   1_455  S
N916        C954   1.342       .  A
N916       Co917   2.083       .  S
Co917       N920   2.084       .  S
Co917       N937   2.082       .  S
Co917       N924   2.086       .  S
C918       C2126   1.458       .  S
C918       C1192   1.477       .  S
C918        N956   1.350   1_655  A
N919        N949   1.323       .  A
N919       Co952   2.077       .  S
N920       N2150   1.319   1_455  A
N920        N956   1.325       .  A
N921        N931   1.318       .  A
H922        C947   1.081       .  S
N923        N944   1.321       .  A
N924       N2154   1.320   1_455  A
N924        N929   1.324       .  A
C925        C953   1.459       .  S
C925       C1177   1.477       .  S
C925       N2141   1.350       .  A
N926        C941   1.338       .  A
N926       Co948   2.077       .  S
C927       C2142   1.462       .  S
C927        N955   1.338       .  A
C927        H961   1.080       .  S
N928       C2122   1.352       .  A
N929       C2137   1.350   1_455  A
C930       C2139   1.462       .  S
C930       C1165   1.486       .  S
C930        N951   1.353       .  A
N932        C958   1.341       .  A
N932       Co948   2.084       .  S
N933        C947   1.337       .  A
N933       N2123   1.318   1_455  A
N934        N962   1.322       .  A
N934       Co952   2.076       .  S
H935        C958   1.081       .  S
H936        C953   1.081       .  S
N938       N2132   1.319       .  A
N938       Co952   2.076       .  S
N939        N951   1.326       .  A
N939       N2167   1.318       .  A
N939       Co948   2.088       .  S
C940       C1144   1.479       .  S
C940        N944   1.347       .  A
C941        C960   1.459       .  S
C941        H945   1.081       .  S
N942        C953   1.339       .  A
N942       N2136   1.320       .  A
N942       Co952   2.078       .  S
C946       C1117   1.479       .  S
C946        N962   1.347   1_545  A
Co948     Cl2171   2.455       .  S
C950       C1129   1.481       .  S
Co952     Cl1565   2.442   1_565  S
N955       N2151   1.319   1_455  A
Cl959     Co2160   2.455       .  S
Cl959     Co1558   2.443       .  S
C960       C1153   1.475       .  S
C963       C1108   1.480       .  S
C963        N981   1.348       .  A
N964        N981   1.323       .  A
N964      Co1001   2.081       .  S
C965       C1003   1.457       .  S
C965        N990   1.339       .  A
C965       H1010   1.082       .  S
H966       C1007   1.081       .  S
C967        C971   1.462       .  S
C967        N991   1.338       .  A
C967        H996   1.078       .  S
Co968       N986   2.088       .  S
Co968       N976   2.083       .  S
Co968      N1008   2.084       .  S
Co968       N984   2.089       .  S
Co968     Cl1921   2.451   1_455  S
N969       C1007   1.342       .  A
N969       N2188   1.320       .  A
N969       Co970   2.086       .  S
Co970       N973   2.088       .  S
Co970       N990   2.083       .  S
Co970       N977   2.085       .  S
C971       C1084   1.487       .  S
N972       N2191   1.319       .  A
N972       N1002   1.326       .  A
N972      Co1005   2.086       .  S
N973       N1009   1.325       .  A
N974       C2215   1.351   1_455  A
N974        N984   1.326       .  A
H975       C1000   1.082       .  S
N976       N2181   1.320   1_455  A
N976        N997   1.323       .  A
N977        N982   1.324       .  A
C978       C1006   1.461       .  S
C978       C1069   1.483       .  S
N979        C994   1.338       .  A
N979       N2184   1.319   1_455  A
N979      Co1001   2.082       .  S
C980       N1008   1.342       .  A
C980       H1014   1.081       .  S
C983       C1093   1.489   1_554  S
C983       N1004   1.348   1_554  A
N984       N2202   1.320   1_455  A
N985       C1011   1.341       .  A
N985       N2199   1.318   1_455  A
N985      Co1001   2.082       .  S
N986       C1000   1.342       .  A
N987       N2197   1.318       .  A
N987       N1015   1.323       .  A
N987      Co1005   2.080       .  S
H988       C1011   1.080       .  S
H989       C1006   1.081       .  S
N990       N2196   1.320       .  A
N991      Co1005   2.076       .  S
N992       N1004   1.321       .  A
N992      Co1001   2.076       .  S
C993       C2219   1.464       .  S
C993       C1204   1.481       .  S
C993        N997   1.349   1_655  A
C994       C1013   1.461   1_455  S
C994        H998   1.082       .  S
N995       C1006   1.340       .  A
N995      Co1005   2.083       .  S
C999       C2223   1.462       .  S
C999       C1180   1.480       .  S
C999       N1015   1.349       .  A
Co1001    Cl2224   2.447   1_455  S
N1002      C2225   1.352       .  A
C1003      C1189   1.478       .  S
C1003      N2186   1.351       .  A
Co1005    Cl1012   2.448       .  S
C1007      C2205   1.464       .  S
C1011      C2211   1.462   1_455  S
Cl1012    Co1877   2.451   1_556  S
Cl1012    Co2213   2.447       .  S
C1013      C1168   1.484       .  S
C1013      N2214   1.352       .  A
C1016      C1053   1.459   1_545  S
C1016      C1156   1.478       .  S
N1017      N1034   1.322       .  A
N1017     Co1054   2.077       .  S
C1018      C1056   1.467       .  S
C1018      N1043   1.340       .  A
C1018      H1063   1.079       .  S
H1019      C1060   1.081       .  S
C1020      N1044   1.339       .  A
C1020      H1049   1.081       .  S
Co1021     N1039   2.070       .  S
Co1021     N1029   2.091       .  S
Co1021     N1061   2.087       .  S
Co1021     N1037   2.070       .  S
N1022      C1060   1.336       .  A
N1022     Co1023   2.071       .  S
Co1023     N1026   2.082       .  S
Co1023     N1043   2.084       .  S
Co1023     N1030   2.079       .  S
C1024      C1120   1.478       .  S
C1024      N1062   1.350   1_545  A
N1025      N1055   1.324       .  A
N1025     Co1058   2.086       .  S
N1026      N1062   1.323       .  A
N1027      N1037   1.322       .  A
H1028      C1053   1.081       .  S
N1029      N1050   1.325       .  A
N1030      N1035   1.324       .  A
C1031      C1059   1.461       .  S
C1031      C1132   1.481       .  S
N1032      C1047   1.341       .  A
N1032     Co1054   2.084       .  S
C1033      N1061   1.341       .  A
C1033      H1067   1.080       .  S
C1036      C1141   1.478       .  S
C1036      N1057   1.349       .  A
N1038      C1064   1.339       .  A
N1038     Co1054   2.080       .  S
N1039      C1053   1.337       .  A
N1040      N1068   1.325       .  A
N1040     Co1058   2.082       .  S
H1041      C1064   1.081       .  S
H1042      C1059   1.081       .  S
N1044     Co1058   2.075       .  S
N1045      N1057   1.323       .  A
N1045     Co1054   2.079       .  S
C1046      C1060   1.459       .  S
C1046      C1072   1.482       .  S
C1047      H1051   1.080       .  S
N1048      C1059   1.335       .  A
N1048     Co1058   2.078       .  S
C1052      C1105   1.479       .  S
C1052      N1068   1.351       .  A
N1055      C1066   1.352   1_556  A
C1056      C1096   1.488       .  S
Co1058    Cl1065   2.447       .  S
C1066      C1081   1.486   1_554  S
C1069      C1070   1.404       .  A
C1070      H1075   1.085       .  S
C1070      C1071   1.400       .  A
C1071      C1072   1.414       .  A
C1071      C1078   1.445       .  S
C1073      H1076   1.085       .  S
C1073      C1074   1.400       .  A
C1074      C1077   1.444       .  S
C1077      N1079   1.157       .  T
C1078      N1080   1.158       .  T
C1081      C1082   1.404       .  A
C1082      H1087   1.085       .  S
C1082      C1083   1.401       .  A
C1083      C1084   1.416       .  A
C1083      C1090   1.443       .  S
C1085      H1088   1.083       .  S
C1085      C1086   1.401       .  A
C1086      C1089   1.443       .  S
C1089      N1091   1.157       .  T
C1090      N1092   1.158       .  T
C1093      C1098   1.417       .  A
C1094      H1099   1.082       .  S
C1094      C1095   1.401       .  A
C1095      C1102   1.445       .  S
C1096      C1097   1.402       .  A
C1097      H1100   1.081       .  S
C1097      C1098   1.397       .  A
C1098      C1101   1.444       .  S
C1101      N1103   1.157       .  T
C1102      N1104   1.158       .  T
C1105      C1106   1.403       .  A
C1106      H1111   1.085       .  S
C1106      C1107   1.400       .  A
C1107      C1108   1.414       .  A
C1107      C1114   1.444       .  S
C1109      H1112   1.085       .  S
C1109      C1110   1.401       .  A
C1110      C1113   1.444       .  S
C1113      N1115   1.158       .  T
C1114      N1116   1.157       .  T
C1117      C1122   1.415   1_545  A
C1118      H1123   1.085       .  S
C1118      C1119   1.399       .  A
C1119      C1126   1.444       .  S
C1120      C1121   1.403   1_545  A
C1121      H1124   1.085       .  S
C1121      C1122   1.398       .  A
C1122      C1125   1.445       .  S
C1125      N1127   1.157       .  T
C1126      N1128   1.158       .  T
C1129      C1130   1.404       .  A
C1130      H1135   1.084       .  S
C1130      C1131   1.400       .  A
C1131      C1138   1.442       .  S
C1132      C1133   1.402       .  A
C1133      H1136   1.083       .  S
C1133      C1134   1.393       .  A
C1134      C1137   1.445       .  S
C1137      N1139   1.157       .  T
C1138      N1140   1.157       .  T
C1141      C1142   1.402       .  A
C1142      H1147   1.084       .  S
C1142      C1143   1.397       .  A
C1143      C1144   1.414       .  A
C1143      C1150   1.445       .  S
C1145      H1148   1.084       .  S
C1145      C1146   1.402       .  A
C1146      C1149   1.443       .  S
C1149      N1151   1.157       .  T
C1150      N1152   1.157       .  T
C1153      C1154   1.403       .  A
C1154      H1159   1.084       .  S
C1154      C1155   1.397       .  A
C1155      C1162   1.444       .  S
C1156      C1157   1.404   1_545  A
C1157      H1160   1.084       .  S
C1157      C1158   1.397       .  A
C1158      C1161   1.444       .  S
C1161      N1163   1.157       .  T
C1162      N1164   1.157       .  T
C1165      C1166   1.406       .  A
C1165      C2382   1.415       .  A
C1166      H1171   1.085       .  S
C1166      C1167   1.404       .  A
C1167      C2380   1.413       .  A
C1167      C1174   1.444       .  S
C1168      C2379   1.413       .  A
C1168      C1169   1.403   1_655  A
C1169      H1172   1.084       .  S
C1169      C1170   1.398       .  A
C1170      C2377   1.415       .  A
C1170      C1173   1.444       .  S
C1173      N1175   1.157       .  T
C1174      N1176   1.157       .  T
C1177      C2390   1.402       .  A
C1177      C1182   1.412       .  A
C1178      H1183   1.085       .  S
C1178      C2389   1.403   1_455  A
C1178      C1179   1.401       .  A
C1179      C2392   1.412   1_455  A
C1179      C1186   1.443       .  S
C1180      C2391   1.413       .  A
C1180      C1181   1.404       .  A
C1181      H1184   1.085       .  S
C1181      C1182   1.399       .  A
C1182      C1185   1.444       .  S
C1185      N1187   1.157       .  T
C1186      N1188   1.157       .  T
C1189      C1190   1.402       .  A
C1189      C2406   1.412       .  A
C1190      H1195   1.085       .  S
C1190      C1191   1.398       .  A
C1191      C2404   1.412       .  A
C1191      C1198   1.444       .  S
C1192      C2403   1.412       .  A
C1192      C1193   1.404   1_655  A
C1193      H1196   1.085       .  S
C1193      C1194   1.403       .  A
C1194      C2401   1.412   1_455  A
C1194      C1197   1.444       .  S
C1197      N1199   1.157       .  T
C1198      N1200   1.157       .  T
C1201      C2414   1.402   1_455  A
C1201      C1206   1.414       .  A
C1202      H1207   1.085       .  S
C1202      C2413   1.402       .  A
C1202      C1203   1.400       .  A
C1203      C2416   1.412       .  A
C1203      C1210   1.440       .  S
C1204      C2415   1.412       .  A
C1204      C1205   1.404   1_655  A
C1205      H1208   1.085       .  S
C1205      C1206   1.399       .  A
C1206      C1209   1.444       .  S
C1209      N1211   1.157       .  T
C1210      N1212   1.156       .  T
C1213      C1250   1.457       .  S
C1213      C1504   1.477       .  S
N1214      N1231   1.325       .  A
N1214     Co1251   2.088       .  S
C1215      C1253   1.465       .  S
C1215      N1240   1.342       .  A
C1215      H1260   1.081       .  S
H1216      C1257   1.082       .  S
C1217      N1241   1.338       .  A
C1217      H1246   1.081       .  S
Co1218     N1236   2.068       .  S
Co1218     N1226   2.077       .  S
Co1218     N1258   2.082       .  S
Co1218     N1234   2.065       .  S
Co1218    Cl1262   2.437       .  S
N1219      C1257   1.342       .  A
N1219      N1832   1.319       .  A
N1219     Co1220   2.083       .  S
Co1220     N1223   2.083       .  S
Co1220     N1240   2.082       .  S
Co1220     N1227   2.086       .  S
Co1220    Cl1868   2.454       .  S
C1221      C1495   1.477       .  S
C1221      N1259   1.350       .  A
N1222      N1835   1.319       .  A
N1222      N1252   1.323       .  A
N1222     Co1255   2.077       .  S
N1223      N1259   1.325       .  A
N1224      C1859   1.346   1_545  A
N1224      N1234   1.318       .  A
H1225      C1250   1.081       .  S
N1226      N1825   1.319   1_545  A
N1226      N1247   1.322       .  A
N1227      N1232   1.324       .  A
C1228      C1256   1.460       .  S
C1228      C1480   1.477       .  S
N1229      C1244   1.338       .  A
N1229      N1828   1.319   1_545  A
N1229     Co1251   2.078       .  S
C1230      N1258   1.338       .  A
C1230      H1264   1.080       .  S
C1233      C1468   1.486       .  S
C1233      N1254   1.353   1_455  A
N1234      N1846   1.318   1_545  A
N1235      C1261   1.341       .  A
N1235      N1843   1.320   1_545  A
N1235     Co1251   2.084       .  S
N1236      C1250   1.337       .  A
N1237      N1841   1.320       .  A
N1237      N1265   1.322       .  A
N1237     Co1255   2.076       .  S
H1238      C1261   1.081       .  S
H1239      C1256   1.081       .  S
N1240      N1840   1.318       .  A
N1241     Co1255   2.076       .  S
N1242      N1254   1.326       .  A
N1242     Co1251   2.089       .  S
C1243      C1863   1.462       .  S
C1243      C1447   1.479       .  S
C1243      N1247   1.347   1_565  A
C1244      C1263   1.459       .  S
C1244      H1248   1.081       .  S
N1245      C1256   1.339       .  A
N1245     Co1255   2.079       .  S
C1249      C1867   1.462       .  S
C1249      C1420   1.479       .  S
C1249      N1265   1.347       .  A
N1252      C1869   1.349       .  A
C1253      C1432   1.481       .  S
C1253      N1830   1.346       .  A
C1257      C1849   1.462       .  S
C1261      C1855   1.462       .  S
Cl1262    Co1826   2.454   1_545  S
C1263      C1456   1.475       .  S
C1263      N1858   1.349   1_545  A
C1266      C1606   1.461       .  S
C1266      C1411   1.480       .  S
C1266      N1284   1.348       .  A
N1267      N1284   1.323       .  A
N1267      N1592   1.320       .  A
N1267     Co1304   2.081       .  S
C1268      C1306   1.457       .  S
C1268      N1293   1.339       .  A
C1268      H1313   1.082       .  S
H1269      C1310   1.081       .  S
C1270      C1274   1.462       .  S
C1270      N1294   1.338       .  A
C1270      H1299   1.078       .  S
Co1271     N1289   2.087       .  S
Co1271     N1279   2.083       .  S
Co1271     N1311   2.084       .  S
Co1271     N1287   2.088       .  S
N1272      C1310   1.342       .  A
N1272     Co1273   2.086       .  S
Co1273     N1276   2.088       .  S
Co1273     N1293   2.083       .  S
Co1273     N1280   2.086       .  S
Co1273    Cl1618   2.452   1_554  S
C1274      C1387   1.487       .  S
C1274      N1615   1.354       .  A
N1275      N1305   1.326       .  A
N1275     Co1308   2.086       .  S
N1276      N1597   1.318   1_554  A
N1276      N1312   1.325       .  A
N1277      N1287   1.326       .  A
H1278      C1303   1.082       .  S
N1279      N1300   1.323       .  A
N1280      N1601   1.320   1_554  A
N1280      N1285   1.324       .  A
C1281      C1309   1.461       .  S
C1281      C1372   1.483       .  S
C1281      N1588   1.350       .  A
N1282      C1297   1.338       .  A
N1282     Co1304   2.081       .  S
C1283      C1589   1.467       .  S
C1283      N1311   1.342       .  A
C1283      H1317   1.081       .  S
N1285      C1584   1.350   1_554  A
C1286      C1586   1.467       .  S
C1286      C1396   1.488       .  S
C1286      N1307   1.348       .  A
N1288      C1314   1.341       .  A
N1288     Co1304   2.082       .  S
N1289      C1303   1.342       .  A
N1289      N1570   1.320   1_554  A
N1290      N1318   1.323       .  A
N1290     Co1308   2.080       .  S
H1291      C1314   1.080       .  S
H1292      C1309   1.081       .  S
N1294      N1579   1.318       .  A
N1294     Co1308   2.076       .  S
N1295      N1307   1.321       .  A
N1295      N1614   1.318       .  A
N1295     Co1304   2.076       .  S
C1296      C1507   1.481       .  S
C1296      N1300   1.349       .  A
C1297      C1316   1.460       .  S
C1297      H1301   1.082       .  S
N1298      C1309   1.340       .  A
N1298      N1583   1.320       .  A
N1298     Co1308   2.082       .  S
C1302      C1483   1.480       .  S
C1302      N1318   1.349       .  A
C1303      C1569   1.461   1_554  S
C1306      C1492   1.478       .  S
Co1308    Cl1315   2.448       .  S
N1311      N1598   1.318   1_554  A
N1312      C1577   1.354   1_554  A
Cl1315    Co1576   2.452       .  S
C1316      C1471   1.483       .  S
C1319      C1356   1.459       .  S
C1319      C1459   1.478       .  S
C1319      N1943   1.349       .  A
N1320      N1337   1.322       .  A
N1320      N1948   1.318   1_545  A
N1320     Co1357   2.077       .  S
C1321      C1359   1.467       .  S
C1321      N1346   1.340       .  A
C1321      H1366   1.080       .  S
H1322      C1363   1.081       .  S
C1323      C1933   1.460       .  S
C1323      N1347   1.339       .  A
C1323      H1352   1.081       .  S
Co1324     N1342   2.070       .  S
Co1324     N1332   2.091       .  S
Co1324     N1364   2.087       .  S
Co1324     N1340   2.070       .  S
Co1324    Cl2277   2.446   1_554  S
N1325      C1363   1.337       .  A
N1325      N1635   1.319       .  A
N1325     Co1326   2.072       .  S
Co1326     N1329   2.082       .  S
Co1326     N1346   2.084       .  S
Co1326     N1333   2.079       .  S
Co1326    Cl1974   2.449       .  S
C1327      C1929   1.460       .  S
C1327      C1423   1.478       .  S
C1327      N1365   1.350       .  A
N1328      N1638   1.318       .  A
N1328      N1358   1.324       .  A
N1328     Co1361   2.086       .  S
N1329      N1953   1.318       .  A
N1329      N1365   1.323       .  A
N1330      C1662   1.348   1_554  A
N1330      N1340   1.322       .  A
H1331      C1356   1.081       .  S
N1332      N1628   1.319   1_554  A
N1332      N1353   1.325       .  A
N1333      N1957   1.319       .  A
N1333      N1338   1.324       .  A
C1334      C1362   1.461       .  S
C1334      C1435   1.481   1_545  S
C1334      N1944   1.350   1_545  A
N1335      C1350   1.341       .  A
N1335      N1631   1.318   1_554  A
N1335     Co1357   2.084       .  S
C1336      C1945   1.462       .  S
C1336      N1364   1.341       .  A
C1336      H1370   1.080       .  S
N1337      C1925   1.349       .  A
N1338      C1940   1.350       .  A
C1339      C1942   1.462       .  S
C1339      C1444   1.478       .  S
C1339      N1360   1.349   1_565  A
N1340      N1649   1.317   1_554  A
N1341      C1367   1.339       .  A
N1341      N1646   1.318   1_554  A
N1341     Co1357   2.079       .  S
N1342      C1356   1.337       .  A
N1342      N1926   1.318       .  A
N1343      N1644   1.318       .  A
N1343      N1371   1.325       .  A
N1343     Co1361   2.082       .  S
H1344      C1367   1.081       .  S
H1345      C1362   1.081       .  S
N1346      N1643   1.317       .  A
N1347      N1935   1.318   1_545  A
N1347     Co1361   2.075       .  S
N1348      N1360   1.323       .  A
N1348      N1970   1.319   1_545  A
N1348     Co1357   2.079       .  S
C1349      C1363   1.459       .  S
C1349      C1375   1.481       .  S
C1349      N1656   1.353       .  A
C1350      C1672   1.464       .  S
C1350      H1354   1.080       .  S
N1351      C1362   1.335       .  A
N1351      N1939   1.319   1_545  A
N1351     Co1361   2.078       .  S
N1353      C1652   1.353   1_554  A
C1355      C1670   1.460       .  S
C1355      C1408   1.479       .  S
C1355      N1371   1.351       .  A
Co1357    Cl1671   2.448   1_554  S
N1358      C1369   1.352       .  A
C1359      C1399   1.488       .  S
C1359      N1633   1.348       .  A
Co1361    Cl1368   2.447       .  S
N1364      N1954   1.319       .  A
C1367      C1658   1.460   1_554  S
Cl1368    Co2233   2.446   1_545  S
Cl1368    Co1932   2.449   1_545  S
Cl1368    Co1660   2.448       .  S
C1369      C1653   1.464       .  S
C1369      C1384   1.487       .  S
C1372      C1373   1.404       .  A
C1372      C1680   1.414       .  A
C1373      H1378   1.085       .  S
C1373      C1374   1.400       .  A
C1374      C1375   1.414       .  A
C1374      C1381   1.445       .  S
C1375      C1679   1.403       .  A
C1376      H1379   1.085       .  S
C1376      C1678   1.403   1_554  A
C1376      C1377   1.400       .  A
C1377      C1675   1.414   1_554  A
C1377      C1380   1.444       .  S
C1380      N1382   1.157       .  T
C1381      N1383   1.158       .  T
C1384      C1385   1.404       .  A
C1384      C1692   1.414       .  A
C1385      H1390   1.085       .  S
C1385      C1386   1.401       .  A
C1386      C1387   1.416       .  A
C1386      C1393   1.443       .  S
C1387      C1691   1.402       .  A
C1388      H1391   1.083       .  S
C1388      C1690   1.402   1_554  A
C1388      C1389   1.400       .  A
C1389      C1687   1.414   1_554  A
C1389      C1392   1.443       .  S
C1392      N1394   1.157       .  T
C1393      N1395   1.158       .  T
C1396      C1700   1.405       .  A
C1396      C1401   1.417       .  A
C1397      H1402   1.082       .  S
C1397      C1699   1.405   1_554  A
C1397      C1398   1.401       .  A
C1398      C1702   1.417   1_554  A
C1398      C1405   1.445       .  S
C1399      C1701   1.417       .  A
C1399      C1400   1.402       .  A
C1400      H1403   1.081       .  S
C1400      C1401   1.397       .  A
C1401      C1404   1.444       .  S
C1404      N1406   1.157       .  T
C1405      N1407   1.158       .  T
C1408      C1409   1.403       .  A
C1408      C1716   1.412       .  A
C1409      H1414   1.085       .  S
C1409      C1410   1.400       .  A
C1410      C1411   1.414       .  A
C1410      C1417   1.444       .  S
C1411      C1715   1.404       .  A
C1412      H1415   1.085       .  S
C1412      C1714   1.404   1_554  A
C1412      C1413   1.401       .  A
C1413      C1711   1.412   1_554  A
C1413      C1416   1.444       .  S
C1416      N1418   1.158       .  T
C1417      N1419   1.157       .  T
C1420      C2027   1.403       .  A
C1420      C1425   1.415       .  A
C1421      H1426   1.085       .  S
C1421      C2026   1.403       .  A
C1421      C1422   1.400       .  A
C1422      C2029   1.413       .  A
C1422      C1429   1.444       .  S
C1423      C2028   1.413       .  A
C1423      C1424   1.403       .  A
C1424      H1427   1.085       .  S
C1424      C1425   1.398       .  A
C1425      C1428   1.445       .  S
C1428      N1430   1.157       .  T
C1429      N1431   1.158       .  T
C1432      C1433   1.404       .  A
C1432      C2043   1.416       .  A
C1433      H1438   1.084       .  S
C1433      C1434   1.400       .  A
C1434      C2041   1.414       .  A
C1434      C1441   1.442       .  S
C1435      C2040   1.414       .  A
C1435      C1436   1.402   1_565  A
C1436      H1439   1.083       .  S
C1436      C1437   1.393       .  A
C1437      C2038   1.416   1_545  A
C1437      C1440   1.445       .  S
C1440      N1442   1.157       .  T
C1441      N1443   1.157       .  T
C1444      C1445   1.402   1_565  A
C1444      C2055   1.412       .  A
C1445      H1450   1.084       .  S
C1445      C1446   1.397       .  A
C1446      C1447   1.414   1_545  A
C1446      C1453   1.445       .  S
C1447      C2054   1.404       .  A
C1448      H1451   1.084       .  S
C1448      C2053   1.404       .  A
C1448      C1449   1.402       .  A
C1449      C2050   1.412       .  A
C1449      C1452   1.443       .  S
C1452      N1454   1.157       .  T
C1453      N1455   1.157       .  T
C1456      C1457   1.403       .  A
C1456      C2067   1.411   1_545  A
C1457      H1462   1.084       .  S
C1457      C1458   1.397       .  A
C1458      C2065   1.414       .  A
C1458      C1465   1.444       .  S
C1459      C2064   1.414       .  A
C1459      C1460   1.404       .  A
C1460      H1463   1.084       .  S
C1460      C1461   1.397       .  A
C1461      C2062   1.411       .  A
C1461      C1464   1.444       .  S
C1464      N1466   1.157       .  T
C1465      N1467   1.157       .  T
C1468      C1469   1.406   1_455  A
C1469      H1474   1.085       .  S
C1469      C1470   1.404       .  A
C1470      C1477   1.444       .  S
C1471      C1472   1.403       .  A
C1472      H1475   1.084       .  S
C1472      C1473   1.398       .  A
C1473      C1476   1.444       .  S
C1476      N1478   1.157       .  T
C1477      N1479   1.157       .  T
C1480      C1485   1.412       .  A
C1481      H1486   1.085       .  S
C1481      C1482   1.401       .  A
C1482      C1489   1.443       .  S
C1483      C1484   1.404       .  A
C1484      H1487   1.085       .  S
C1484      C1485   1.399       .  A
C1485      C1488   1.444       .  S
C1488      N1490   1.157       .  T
C1489      N1491   1.157       .  T
C1492      C1493   1.402       .  A
C1493      H1498   1.085       .  S
C1493      C1494   1.398       .  A
C1494      C1501   1.444       .  S
C1495      C1496   1.404       .  A
C1496      H1499   1.085       .  S
C1496      C1497   1.403       .  A
C1497      C1500   1.444       .  S
C1500      N1502   1.157       .  T
C1501      N1503   1.157       .  T
C1504      C1509   1.414       .  A
C1505      H1510   1.085       .  S
C1505      C1506   1.400       .  A
C1506      C1513   1.440       .  S
C1507      C1508   1.404       .  A
C1508      H1511   1.085       .  S
C1508      C1509   1.399       .  A
C1509      C1512   1.444       .  S
C1512      N1514   1.157       .  T
C1513      N1515   1.156       .  T
C1516      C1553   1.457       .  S
C1516      C1807   1.477       .  S
N1517      N1534   1.325       .  A
N1517     Co1554   2.089       .  S
C1518      C1556   1.465       .  S
C1518      N1543   1.342       .  A
C1518      H1563   1.081       .  S
H1519      C1560   1.082       .  S
C1520      N1544   1.338       .  A
C1520      H1549   1.081       .  S
Co1521     N1539   2.068       .  S
Co1521     N1529   2.077       .  S
Co1521     N1561   2.082       .  S
Co1521     N1537   2.065       .  S
Co1521    Cl1565   2.437       .  S
N1522      C1560   1.342       .  A
N1522      N2135   1.319       .  A
N1522     Co1523   2.083       .  S
Co1523     N1526   2.083       .  S
Co1523     N1543   2.082       .  S
Co1523     N1530   2.086       .  S
Co1523    Cl2171   2.454       .  S
C1524      C1798   1.477       .  S
C1524      N1562   1.350       .  A
N1525      N2138   1.319       .  A
N1525      N1555   1.323       .  A
N1525     Co1558   2.077       .  S
N1526      N1562   1.325       .  A
N1527      C2162   1.346   1_545  A
N1527      N1537   1.318       .  A
H1528      C1553   1.081       .  S
N1529      N2128   1.319   1_545  A
N1529      N1550   1.322       .  A
N1530      N1535   1.324       .  A
C1531      C1559   1.460       .  S
C1531      C1783   1.477       .  S
N1532      C1547   1.338       .  A
N1532      N2131   1.319   1_545  A
N1532     Co1554   2.077       .  S
C1533      N1561   1.338       .  A
C1533      H1567   1.080       .  S
C1536      C1771   1.486       .  S
C1536      N1557   1.353   1_455  A
N1537      N2149   1.318   1_545  A
N1538      C1564   1.341       .  A
N1538      N2146   1.320   1_545  A
N1538     Co1554   2.084       .  S
N1539      C1553   1.337       .  A
N1540      N2144   1.320       .  A
N1540      N1568   1.322       .  A
N1540     Co1558   2.076       .  S
H1541      C1564   1.081       .  S
H1542      C1559   1.081       .  S
N1543      N2143   1.318       .  A
N1544     Co1558   2.076       .  S
N1545      N1557   1.326       .  A
N1545     Co1554   2.089       .  S
C1546      C2166   1.462       .  S
C1546      C1750   1.479       .  S
C1546      N1550   1.347   1_565  A
C1547      C1566   1.459       .  S
C1547      H1551   1.081       .  S
N1548      C1559   1.339       .  A
N1548     Co1558   2.079       .  S
C1552      C2170   1.462       .  S
C1552      C1723   1.479       .  S
C1552      N1568   1.347       .  A
N1555      C2172   1.349       .  A
C1556      C1735   1.481       .  S
C1556      N2133   1.346       .  A
C1560      C2152   1.462       .  S
C1564      C2158   1.462       .  S
Cl1565    Co2129   2.454   1_545  S
C1566      C1759   1.475       .  S
C1566      N2161   1.349   1_545  A
C1569      C1714   1.480       .  S
C1569      N1587   1.348       .  A
N1570      N1587   1.323       .  A
N1570     Co1607   2.081       .  S
C1571      C1609   1.457       .  S
C1571      N1596   1.339       .  A
C1571      H1616   1.082       .  S
H1572      C1613   1.081       .  S
C1573      C1577   1.462       .  S
C1573      N1597   1.338       .  A
C1573      H1602   1.078       .  S
Co1574     N1592   2.087       .  S
Co1574     N1582   2.083       .  S
Co1574     N1614   2.084       .  S
Co1574     N1590   2.088       .  S
N1575      C1613   1.342       .  A
N1575     Co1576   2.086       .  S
Co1576     N1579   2.088       .  S
Co1576     N1596   2.083       .  S
Co1576     N1583   2.086       .  S
C1577      C1690   1.487       .  S
N1578      N1608   1.326       .  A
N1578     Co1611   2.086       .  S
N1579      N1615   1.325       .  A
N1580      N1590   1.326       .  A
H1581      C1606   1.082       .  S
N1582      N1603   1.323       .  A
N1583      N1588   1.324       .  A
C1584      C1612   1.461       .  S
C1584      C1675   1.483       .  S
N1585      C1600   1.338       .  A
N1585     Co1607   2.081       .  S
C1586      N1614   1.342       .  A
C1586      H1620   1.081       .  S
C1589      C1699   1.488   1_554  S
C1589      N1610   1.348   1_554  A
N1591      C1617   1.341       .  A
N1591     Co1607   2.082       .  S
N1592      C1606   1.342       .  A
N1593      N1621   1.323       .  A
N1593     Co1611   2.080       .  S
H1594      C1617   1.080       .  S
H1595      C1612   1.081       .  S
N1597     Co1611   2.076       .  S
N1598      N1610   1.321       .  A
N1598     Co1607   2.076       .  S
C1599      C1810   1.481       .  S
C1599      N1603   1.349       .  A
C1600      C1619   1.460       .  S
C1600      H1604   1.082       .  S
N1601      C1612   1.340       .  A
N1601     Co1611   2.082       .  S
C1605      C1786   1.480       .  S
C1605      N1621   1.349       .  A
C1609      C1795   1.478       .  S
Co1611    Cl1618   2.448       .  S
C1619      C1774   1.483       .  S
C1622      C1659   1.459       .  S
C1622      C1762   1.478       .  S
C1622      N2246   1.349       .  A
N1623      N1640   1.322       .  A
N1623      N2251   1.318   1_545  A
N1623     Co1660   2.077       .  S
C1624      C1662   1.467       .  S
C1624      N1649   1.340       .  A
C1624      H1669   1.080       .  S
H1625      C1666   1.081       .  S
C1626      C2236   1.460       .  S
C1626      N1650   1.339       .  A
C1626      H1655   1.081       .  S
Co1627     N1645   2.070       .  S
Co1627     N1635   2.091       .  S
Co1627     N1667   2.087       .  S
Co1627     N1643   2.070       .  S
Co1627    Cl1974   2.446       .  S
N1628      C1666   1.337       .  A
N1628     Co1629   2.072       .  S
Co1629     N1632   2.082       .  S
Co1629     N1649   2.084       .  S
Co1629     N1636   2.079       .  S
Co1629    Cl2277   2.449       .  S
C1630      C2232   1.460       .  S
C1630      C1726   1.478       .  S
C1630      N1668   1.350       .  A
N1631      N1661   1.324       .  A
N1631     Co1664   2.086       .  S
N1632      N2256   1.318       .  A
N1632      N1668   1.323       .  A
N1633      N1643   1.322       .  A
H1634      C1659   1.081       .  S
N1635      N1656   1.325       .  A
N1636      N2260   1.319       .  A
N1636      N1641   1.324       .  A
C1637      C1665   1.461       .  S
C1637      C1738   1.481   1_545  S
C1637      N2247   1.350   1_545  A
N1638      C1653   1.341       .  A
N1638     Co1660   2.084       .  S
C1639      C2248   1.462       .  S
C1639      N1667   1.341       .  A
C1639      H1673   1.080       .  S
N1640      C2228   1.349       .  A
N1641      C2243   1.350       .  A
C1642      C2245   1.462       .  S
C1642      C1747   1.478       .  S
C1642      N1663   1.349   1_565  A
N1644      C1670   1.339       .  A
N1644     Co1660   2.079       .  S
N1645      C1659   1.337       .  A
N1645      N2229   1.318       .  A
N1646      N1674   1.325       .  A
N1646     Co1664   2.082       .  S
H1647      C1670   1.081       .  S
H1648      C1665   1.081       .  S
N1650      N2238   1.318   1_545  A
N1650     Co1664   2.075       .  S
N1651      N1663   1.323       .  A
N1651      N2273   1.319   1_545  A
N1651     Co1660   2.079       .  S
C1652      C1666   1.459       .  S
C1652      C1678   1.481       .  S
C1653      H1657   1.080       .  S
N1654      C1665   1.335       .  A
N1654      N2242   1.319   1_545  A
N1654     Co1664   2.078       .  S
C1658      C1711   1.479       .  S
C1658      N1674   1.351       .  A
N1661      C1672   1.352   1_556  A
C1662      C1702   1.488       .  S
Co1664    Cl1671   2.447       .  S
N1667      N2257   1.319       .  A
Cl1671    Co1930   2.446   1_546  S
Cl1671    Co2235   2.449   1_545  S
C1672      C1687   1.487   1_554  S
C1675      C1676   1.404       .  A
C1676      H1681   1.085       .  S
C1676      C1677   1.400       .  A
C1677      C1678   1.414       .  A
C1677      C1684   1.445       .  S
C1679      H1682   1.085       .  S
C1679      C1680   1.400       .  A
C1680      C1683   1.444       .  S
C1683      N1685   1.157       .  T
C1684      N1686   1.158       .  T
C1687      C1688   1.404       .  A
C1688      H1693   1.085       .  S
C1688      C1689   1.401       .  A
C1689      C1690   1.416       .  A
C1689      C1696   1.443       .  S
C1691      H1694   1.083       .  S
C1691      C1692   1.401       .  A
C1692      C1695   1.443       .  S
C1695      N1697   1.157       .  T
C1696      N1698   1.158       .  T
C1699      C1704   1.417       .  A
C1700      H1705   1.082       .  S
C1700      C1701   1.401       .  A
C1701      C1708   1.445       .  S
C1702      C1703   1.402       .  A
C1703      H1706   1.081       .  S
C1703      C1704   1.397       .  A
C1704      C1707   1.444       .  S
C1707      N1709   1.157       .  T
C1708      N1710   1.158       .  T
C1711      C1712   1.403       .  A
C1712      H1717   1.085       .  S
C1712      C1713   1.400       .  A
C1713      C1714   1.414       .  A
C1713      C1720   1.444       .  S
C1715      H1718   1.085       .  S
C1715      C1716   1.401       .  A
C1716      C1719   1.444       .  S
C1719      N1721   1.158       .  T
C1720      N1722   1.157       .  T
C1723      C2330   1.403       .  A
C1723      C1728   1.415       .  A
C1724      H1729   1.085       .  S
C1724      C2329   1.403       .  A
C1724      C1725   1.399       .  A
C1725      C2332   1.413       .  A
C1725      C1732   1.444       .  S
C1726      C2331   1.413       .  A
C1726      C1727   1.403       .  A
C1727      H1730   1.085       .  S
C1727      C1728   1.398       .  A
C1728      C1731   1.445       .  S
C1731      N1733   1.157       .  T
C1732      N1734   1.158       .  T
C1735      C1736   1.404       .  A
C1735      C2346   1.416       .  A
C1736      H1741   1.084       .  S
C1736      C1737   1.400       .  A
C1737      C2344   1.414       .  A
C1737      C1744   1.442       .  S
C1738      C2343   1.414       .  A
C1738      C1739   1.402   1_565  A
C1739      H1742   1.083       .  S
C1739      C1740   1.393       .  A
C1740      C2341   1.416   1_545  A
C1740      C1743   1.445       .  S
C1743      N1745   1.157       .  T
C1744      N1746   1.157       .  T
C1747      C1748   1.402   1_565  A
C1747      C2358   1.412       .  A
C1748      H1753   1.084       .  S
C1748      C1749   1.397       .  A
C1749      C1750   1.414   1_545  A
C1749      C1756   1.445       .  S
C1750      C2357   1.404       .  A
C1751      H1754   1.084       .  S
C1751      C2356   1.404       .  A
C1751      C1752   1.402       .  A
C1752      C2353   1.412       .  A
C1752      C1755   1.443       .  S
C1755      N1757   1.157       .  T
C1756      N1758   1.157       .  T
C1759      C1760   1.403       .  A
C1759      C2370   1.411   1_545  A
C1760      H1765   1.084       .  S
C1760      C1761   1.397       .  A
C1761      C2368   1.414       .  A
C1761      C1768   1.444       .  S
C1762      C2367   1.414       .  A
C1762      C1763   1.404       .  A
C1763      H1766   1.084       .  S
C1763      C1764   1.397       .  A
C1764      C2365   1.411       .  A
C1764      C1767   1.444       .  S
C1767      N1769   1.157       .  T
C1768      N1770   1.157       .  T
C1771      C1772   1.406   1_455  A
C1772      H1777   1.085       .  S
C1772      C1773   1.404       .  A
C1773      C1780   1.444       .  S
C1774      C1775   1.403       .  A
C1775      H1778   1.084       .  S
C1775      C1776   1.398       .  A
C1776      C1779   1.444       .  S
C1779      N1781   1.157       .  T
C1780      N1782   1.157       .  T
C1783      C1788   1.412       .  A
C1784      H1789   1.085       .  S
C1784      C1785   1.401       .  A
C1785      C1792   1.443       .  S
C1786      C1787   1.404       .  A
C1787      H1790   1.085       .  S
C1787      C1788   1.399       .  A
C1788      C1791   1.444       .  S
C1791      N1793   1.157       .  T
C1792      N1794   1.157       .  T
C1795      C1796   1.402       .  A
C1796      H1801   1.085       .  S
C1796      C1797   1.398       .  A
C1797      C1804   1.444       .  S
C1798      C1799   1.404       .  A
C1799      H1802   1.085       .  S
C1799      C1800   1.403       .  A
C1800      C1803   1.444       .  S
C1803      N1805   1.157       .  T
C1804      N1806   1.157       .  T
C1807      C1812   1.414       .  A
C1808      H1813   1.085       .  S
C1808      C1809   1.400       .  A
C1809      C1816   1.440       .  S
C1810      C1811   1.404       .  A
C1811      H1814   1.085       .  S
C1811      C1812   1.399       .  A
C1812      C1815   1.444       .  S
C1815      N1817   1.157       .  T
C1816      N1818   1.156       .  T
C1819      C1856   1.457       .  S
C1819      C2110   1.477       .  S
N1820      N1837   1.325       .  A
N1820     Co1857   2.089       .  S
C1821      C1859   1.465       .  S
C1821      N1846   1.342       .  A
C1821      H1866   1.081       .  S
H1822      C1863   1.082       .  S
C1823      N1847   1.338       .  A
C1823      H1852   1.081       .  S
Co1824     N1842   2.068       .  S
Co1824     N1832   2.077       .  S
Co1824     N1864   2.082       .  S
Co1824     N1840   2.065       .  S
Co1824    Cl1868   2.437       .  S
N1825      C1863   1.342       .  A
N1825     Co1826   2.083       .  S
Co1826     N1829   2.084       .  S
Co1826     N1846   2.082       .  S
Co1826     N1833   2.086       .  S
C1827      C2101   1.477       .  S
C1827      N1865   1.350       .  A
N1828      N1858   1.323       .  A
N1828     Co1861   2.077       .  S
N1829      N1865   1.325       .  A
N1830      N1840   1.318       .  A
H1831      C1856   1.081       .  S
N1832      N1853   1.322       .  A
N1833      N1838   1.324       .  A
C1834      C1862   1.460       .  S
C1834      C2086   1.477       .  S
N1835      C1850   1.338       .  A
N1835     Co1857   2.077       .  S
C1836      N1864   1.338       .  A
C1836      H1870   1.080       .  S
C1839      C2074   1.486       .  S
C1839      N1860   1.353   1_455  A
N1841      C1867   1.341       .  A
N1841     Co1857   2.084       .  S
N1842      C1856   1.337       .  A
N1843      N1871   1.322       .  A
N1843     Co1861   2.076       .  S
H1844      C1867   1.081       .  S
H1845      C1862   1.081       .  S
N1847     Co1861   2.076       .  S
N1848      N1860   1.326       .  A
N1848     Co1857   2.089       .  S
C1849      C2053   1.479       .  S
C1849      N1853   1.347       .  A
C1850      C1869   1.459       .  S
C1850      H1854   1.081       .  S
N1851      C1862   1.339       .  A
N1851     Co1861   2.078       .  S
C1855      C2026   1.479       .  S
C1855      N1871   1.347   1_545  A
C1859      C2038   1.481       .  S
C1869      C2062   1.475       .  S
C1872      C2212   1.461       .  S
C1872      C2017   1.480       .  S
C1872      N1890   1.348       .  A
N1873      N1890   1.323       .  A
N1873      N2198   1.320       .  A
N1873     Co1910   2.081       .  S
C1874      C1912   1.457       .  S
C1874      N1899   1.339       .  A
C1874      H1919   1.082       .  S
H1875      C1916   1.081       .  S
C1876      C1880   1.462       .  S
C1876      N1900   1.338       .  A
C1876      H1905   1.078       .  S
Co1877     N1895   2.087       .  S
Co1877     N1885   2.083       .  S
Co1877     N1917   2.084       .  S
Co1877     N1893   2.088       .  S
N1878      C1916   1.342       .  A
N1878     Co1879   2.086       .  S
Co1879     N1882   2.088       .  S
Co1879     N1899   2.083       .  S
Co1879     N1886   2.086       .  S
Co1879    Cl2224   2.452   1_554  S
C1880      C1993   1.487       .  S
C1880      N2221   1.354       .  A
N1881      N1911   1.326       .  A
N1881     Co1914   2.086       .  S
N1882      N2203   1.318   1_554  A
N1882      N1918   1.325       .  A
N1883      N1893   1.326       .  A
H1884      C1909   1.082       .  S
N1885      N1906   1.323       .  A
N1886      N2207   1.320   1_554  A
N1886      N1891   1.324       .  A
C1887      C1915   1.461       .  S
C1887      C1978   1.483       .  S
C1887      N2194   1.350       .  A
N1888      C1903   1.338       .  A
N1888     Co1910   2.081       .  S
C1889      C2195   1.467       .  S
C1889      N1917   1.342       .  A
C1889      H1923   1.081       .  S
N1891      C2190   1.350   1_554  A
C1892      C2192   1.467       .  S
C1892      C2002   1.488       .  S
C1892      N1913   1.348       .  A
N1894      C1920   1.341       .  A
N1894     Co1910   2.082       .  S
N1895      C1909   1.342       .  A
N1895      N2176   1.320   1_554  A
N1896      N1924   1.323       .  A
N1896     Co1914   2.080       .  S
H1897      C1920   1.080       .  S
H1898      C1915   1.081       .  S
N1900      N2185   1.318       .  A
N1900     Co1914   2.076       .  S
N1901      N1913   1.321       .  A
N1901      N2220   1.318       .  A
N1901     Co1910   2.076       .  S
C1902      C2113   1.481       .  S
C1902      N1906   1.349       .  A
C1903      C1922   1.460       .  S
C1903      H1907   1.082       .  S
N1904      C1915   1.340       .  A
N1904      N2189   1.320       .  A
N1904     Co1914   2.082       .  S
C1908      C2089   1.480       .  S
C1908      N1924   1.349       .  A
C1909      C2175   1.461   1_554  S
C1912      C2098   1.478       .  S
Co1914    Cl1921   2.448       .  S
N1917      N2204   1.318   1_554  A
N1918      C2183   1.354   1_554  A
Cl1921    Co2182   2.452       .  S
C1922      C2077   1.484       .  S
C1925      C1962   1.459   1_545  S
C1925      C2065   1.478       .  S
N1926      N1943   1.322       .  A
N1926     Co1963   2.077       .  S
C1927      C1965   1.467       .  S
C1927      N1952   1.340       .  A
C1927      H1972   1.080       .  S
H1928      C1969   1.081       .  S
C1929      N1953   1.339       .  A
C1929      H1958   1.081       .  S
Co1930     N1948   2.070       .  S
Co1930     N1938   2.091       .  S
Co1930     N1970   2.087       .  S
Co1930     N1946   2.070       .  S
N1931      C1969   1.337       .  A
N1931      N2241   1.319       .  A
N1931     Co1932   2.072       .  S
Co1932     N1935   2.082       .  S
Co1932     N1952   2.084       .  S
Co1932     N1939   2.079       .  S
C1933      C2029   1.479       .  S
C1933      N1971   1.350   1_545  A
N1934      N2244   1.318       .  A
N1934      N1964   1.324       .  A
N1934     Co1967   2.086       .  S
N1935      N1971   1.323       .  A
N1936      C2268   1.348   1_554  A
N1936      N1946   1.322       .  A
H1937      C1962   1.081       .  S
N1938      N2234   1.319   1_554  A
N1938      N1959   1.325       .  A
N1939      N1944   1.324       .  A
C1940      C1968   1.461       .  S
C1940      C2041   1.481       .  S
N1941      C1956   1.341       .  A
N1941      N2237   1.318   1_554  A
N1941     Co1963   2.084       .  S
C1942      N1970   1.341       .  A
C1942      H1976   1.080       .  S
C1945      C2050   1.478       .  S
C1945      N1966   1.349       .  A
N1946      N2255   1.317   1_554  A
N1947      C1973   1.339       .  A
N1947      N2252   1.318   1_554  A
N1947     Co1963   2.079       .  S
N1948      C1962   1.337       .  A
N1949      N2250   1.318       .  A
N1949      N1977   1.325       .  A
N1949     Co1967   2.082       .  S
H1950      C1973   1.081       .  S
H1951      C1968   1.081       .  S
N1952      N2249   1.317       .  A
N1953     Co1967   2.075       .  S
N1954      N1966   1.323       .  A
N1954     Co1963   2.079       .  S
C1955      C1969   1.459       .  S
C1955      C1981   1.481       .  S
C1955      N2262   1.353       .  A
C1956      C2278   1.464       .  S
C1956      H1960   1.080       .  S
N1957      C1968   1.335       .  A
N1957     Co1967   2.079       .  S
N1959      C2258   1.353   1_554  A
C1961      C2276   1.460       .  S
C1961      C2014   1.479       .  S
C1961      N1977   1.351       .  A
Co1963    Cl2277   2.448   1_554  S
N1964      C1975   1.352       .  A
C1965      C2005   1.488       .  S
C1965      N2239   1.348       .  A
Co1967    Cl1974   2.446       .  S
C1973      C2264   1.460   1_554  S
Cl1974    Co2266   2.448       .  S
C1975      C2259   1.464       .  S
C1975      C1990   1.487       .  S
C1978      C1979   1.404       .  A
C1978      C2286   1.414       .  A
C1979      H1984   1.085       .  S
C1979      C1980   1.400       .  A
C1980      C1981   1.414       .  A
C1980      C1987   1.445       .  S
C1981      C2285   1.403       .  A
C1982      H1985   1.085       .  S
C1982      C2284   1.403   1_554  A
C1982      C1983   1.400       .  A
C1983      C2281   1.414   1_554  A
C1983      C1986   1.444       .  S
C1986      N1988   1.157       .  T
C1987      N1989   1.158       .  T
C1990      C1991   1.404       .  A
C1990      C2298   1.414       .  A
C1991      H1996   1.085       .  S
C1991      C1992   1.401       .  A
C1992      C1993   1.416       .  A
C1992      C1999   1.443       .  S
C1993      C2297   1.402       .  A
C1994      H1997   1.083       .  S
C1994      C2296   1.402   1_554  A
C1994      C1995   1.401       .  A
C1995      C2293   1.414   1_554  A
C1995      C1998   1.443       .  S
C1998      N2000   1.157       .  T
C1999      N2001   1.158       .  T
C2002      C2306   1.405       .  A
C2002      C2007   1.417       .  A
C2003      H2008   1.082       .  S
C2003      C2305   1.405   1_554  A
C2003      C2004   1.401       .  A
C2004      C2308   1.417   1_554  A
C2004      C2011   1.445       .  S
C2005      C2307   1.417       .  A
C2005      C2006   1.402       .  A
C2006      H2009   1.081       .  S
C2006      C2007   1.397       .  A
C2007      C2010   1.444       .  S
C2010      N2012   1.157       .  T
C2011      N2013   1.158       .  T
C2014      C2015   1.403       .  A
C2014      C2322   1.412       .  A
C2015      H2020   1.085       .  S
C2015      C2016   1.400       .  A
C2016      C2017   1.414       .  A
C2016      C2023   1.444       .  S
C2017      C2321   1.404       .  A
C2018      H2021   1.085       .  S
C2018      C2320   1.404   1_554  A
C2018      C2019   1.401       .  A
C2019      C2317   1.412   1_554  A
C2019      C2022   1.444       .  S
C2022      N2024   1.158       .  T
C2023      N2025   1.157       .  T
C2026      C2031   1.415   1_545  A
C2027      H2032   1.085       .  S
C2027      C2028   1.399       .  A
C2028      C2035   1.444       .  S
C2029      C2030   1.403   1_545  A
C2030      H2033   1.085       .  S
C2030      C2031   1.398       .  A
C2031      C2034   1.445       .  S
C2034      N2036   1.157       .  T
C2035      N2037   1.158       .  T
C2038      C2039   1.404       .  A
C2039      H2044   1.084       .  S
C2039      C2040   1.400       .  A
C2040      C2047   1.442       .  S
C2041      C2042   1.402       .  A
C2042      H2045   1.083       .  S
C2042      C2043   1.393       .  A
C2043      C2046   1.445       .  S
C2046      N2048   1.157       .  T
C2047      N2049   1.157       .  T
C2050      C2051   1.402       .  A
C2051      H2056   1.084       .  S
C2051      C2052   1.397       .  A
C2052      C2053   1.414       .  A
C2052      C2059   1.445       .  S
C2054      H2057   1.084       .  S
C2054      C2055   1.402       .  A
C2055      C2058   1.443       .  S
C2058      N2060   1.157       .  T
C2059      N2061   1.157       .  T
C2062      C2063   1.403       .  A
C2063      H2068   1.084       .  S
C2063      C2064   1.397       .  A
C2064      C2071   1.444       .  S
C2065      C2066   1.404   1_545  A
C2066      H2069   1.084       .  S
C2066      C2067   1.397       .  A
C2067      C2070   1.444       .  S
C2070      N2072   1.157       .  T
C2071      N2073   1.157       .  T
C2074      C2075   1.406   1_455  A
C2075      H2080   1.085       .  S
C2075      C2076   1.404       .  A
C2076      C2083   1.444       .  S
C2077      C2078   1.403       .  A
C2078      H2081   1.084       .  S
C2078      C2079   1.398       .  A
C2079      C2082   1.444       .  S
C2082      N2084   1.157       .  T
C2083      N2085   1.157       .  T
C2086      C2091   1.412       .  A
C2087      H2092   1.085       .  S
C2087      C2088   1.401       .  A
C2088      C2095   1.443       .  S
C2089      C2090   1.404       .  A
C2090      H2093   1.085       .  S
C2090      C2091   1.399       .  A
C2091      C2094   1.444       .  S
C2094      N2096   1.157       .  T
C2095      N2097   1.157       .  T
C2098      C2099   1.402       .  A
C2099      H2104   1.085       .  S
C2099      C2100   1.398       .  A
C2100      C2107   1.444       .  S
C2101      C2102   1.404       .  A
C2102      H2105   1.085       .  S
C2102      C2103   1.403       .  A
C2103      C2106   1.444       .  S
C2106      N2108   1.157       .  T
C2107      N2109   1.157       .  T
C2110      C2115   1.414       .  A
C2111      H2116   1.085       .  S
C2111      C2112   1.400       .  A
C2112      C2119   1.440       .  S
C2113      C2114   1.404       .  A
C2114      H2117   1.085       .  S
C2114      C2115   1.399       .  A
C2115      C2118   1.444       .  S
C2118      N2120   1.157       .  T
C2119      N2121   1.156       .  T
C2122      C2159   1.457       .  S
C2122      C2413   1.477       .  S
N2123      N2140   1.325       .  A
N2123     Co2160   2.089       .  S
C2124      C2162   1.465       .  S
C2124      N2149   1.342       .  A
C2124      H2169   1.081       .  S
H2125      C2166   1.082       .  S
C2126      N2150   1.338       .  A
C2126      H2155   1.081       .  S
Co2127     N2145   2.068       .  S
Co2127     N2135   2.077       .  S
Co2127     N2167   2.082       .  S
Co2127     N2143   2.065       .  S
Co2127    Cl2171   2.437       .  S
N2128      C2166   1.342       .  A
N2128     Co2129   2.083       .  S
Co2129     N2132   2.084       .  S
Co2129     N2149   2.082       .  S
Co2129     N2136   2.086       .  S
C2130      C2404   1.477       .  S
C2130      N2168   1.350       .  A
N2131      N2161   1.323       .  A
N2131     Co2164   2.077       .  S
N2132      N2168   1.325       .  A
N2133      N2143   1.318       .  A
H2134      C2159   1.081       .  S
N2135      N2156   1.322       .  A
N2136      N2141   1.324       .  A
C2137      C2165   1.460       .  S
C2137      C2389   1.477       .  S
N2138      C2153   1.338       .  A
N2138     Co2160   2.077       .  S
C2139      N2167   1.338       .  A
C2139      H2173   1.080       .  S
C2142      C2377   1.486       .  S
C2142      N2163   1.353   1_455  A
N2144      C2170   1.341       .  A
N2144     Co2160   2.084       .  S
N2145      C2159   1.337       .  A
N2146      N2174   1.322       .  A
N2146     Co2164   2.076       .  S
H2147      C2170   1.081       .  S
H2148      C2165   1.081       .  S
N2150     Co2164   2.076       .  S
N2151      N2163   1.326       .  A
N2151     Co2160   2.089       .  S
C2152      C2356   1.479       .  S
C2152      N2156   1.347       .  A
C2153      C2172   1.459       .  S
C2153      H2157   1.081       .  S
N2154      C2165   1.339       .  A
N2154     Co2164   2.079       .  S
C2158      C2329   1.479       .  S
C2158      N2174   1.347   1_545  A
C2162      C2341   1.481       .  S
C2172      C2365   1.475       .  S
C2175      C2320   1.480       .  S
C2175      N2193   1.348       .  A
N2176      N2193   1.323       .  A
N2176     Co2213   2.081       .  S
C2177      C2215   1.457       .  S
C2177      N2202   1.339       .  A
C2177      H2222   1.082       .  S
H2178      C2219   1.081       .  S
C2179      C2183   1.462       .  S
C2179      N2203   1.338       .  A
C2179      H2208   1.078       .  S
Co2180     N2198   2.087       .  S
Co2180     N2188   2.083       .  S
Co2180     N2220   2.084       .  S
Co2180     N2196   2.088       .  S
N2181      C2219   1.342       .  A
N2181     Co2182   2.086       .  S
Co2182     N2185   2.088       .  S
Co2182     N2202   2.083       .  S
Co2182     N2189   2.086       .  S
C2183      C2296   1.487       .  S
N2184      N2214   1.326       .  A
N2184     Co2217   2.086       .  S
N2185      N2221   1.325       .  A
N2186      N2196   1.326       .  A
H2187      C2212   1.082       .  S
N2188      N2209   1.323       .  A
N2189      N2194   1.324       .  A
C2190      C2218   1.461       .  S
C2190      C2281   1.483       .  S
N2191      C2206   1.338       .  A
N2191     Co2213   2.082       .  S
C2192      N2220   1.342       .  A
C2192      H2226   1.081       .  S
C2195      C2305   1.488   1_554  S
C2195      N2216   1.348   1_554  A
N2197      C2223   1.341       .  A
N2197     Co2213   2.082       .  S
N2198      C2212   1.342       .  A
N2199      N2227   1.323       .  A
N2199     Co2217   2.080       .  S
H2200      C2223   1.080       .  S
H2201      C2218   1.081       .  S
N2203     Co2217   2.076       .  S
N2204      N2216   1.321       .  A
N2204     Co2213   2.076       .  S
C2205      C2416   1.481       .  S
C2205      N2209   1.349       .  A
C2206      C2225   1.460       .  S
C2206      H2210   1.082       .  S
N2207      C2218   1.340       .  A
N2207     Co2217   2.082       .  S
C2211      C2392   1.480       .  S
C2211      N2227   1.349       .  A
C2215      C2401   1.478       .  S
Co2217    Cl2224   2.448       .  S
C2225      C2380   1.484       .  S
C2228      C2265   1.459   1_545  S
C2228      C2368   1.478       .  S
N2229      N2246   1.322       .  A
N2229     Co2266   2.077       .  S
C2230      C2268   1.467       .  S
C2230      N2255   1.340       .  A
C2230      H2275   1.080       .  S
H2231      C2272   1.081       .  S
C2232      N2256   1.339       .  A
C2232      H2261   1.081       .  S
Co2233     N2251   2.070       .  S
Co2233     N2241   2.091       .  S
Co2233     N2273   2.087       .  S
Co2233     N2249   2.070       .  S
N2234      C2272   1.337       .  A
N2234     Co2235   2.072       .  S
Co2235     N2238   2.082       .  S
Co2235     N2255   2.084       .  S
Co2235     N2242   2.079       .  S
C2236      C2332   1.478       .  S
C2236      N2274   1.350   1_545  A
N2237      N2267   1.324       .  A
N2237     Co2270   2.086       .  S
N2238      N2274   1.323       .  A
N2239      N2249   1.322       .  A
H2240      C2265   1.081       .  S
N2241      N2262   1.325       .  A
N2242      N2247   1.324       .  A
C2243      C2271   1.461       .  S
C2243      C2344   1.481       .  S
N2244      C2259   1.341       .  A
N2244     Co2266   2.084       .  S
C2245      N2273   1.341       .  A
C2245      H2279   1.080       .  S
C2248      C2353   1.478       .  S
C2248      N2269   1.349       .  A
N2250      C2276   1.339       .  A
N2250     Co2266   2.079       .  S
N2251      C2265   1.337       .  A
N2252      N2280   1.325       .  A
N2252     Co2270   2.082       .  S
H2253      C2276   1.081       .  S
H2254      C2271   1.081       .  S
N2256     Co2270   2.075       .  S
N2257      N2269   1.323       .  A
N2257     Co2266   2.079       .  S
C2258      C2272   1.459       .  S
C2258      C2284   1.481       .  S
C2259      H2263   1.080       .  S
N2260      C2271   1.335       .  A
N2260     Co2270   2.078       .  S
C2264      C2317   1.479       .  S
C2264      N2280   1.351       .  A
N2267      C2278   1.352   1_556  A
C2268      C2308   1.488       .  S
Co2270    Cl2277   2.446       .  S
C2278      C2293   1.487   1_554  S
C2281      C2282   1.404       .  A
C2282      H2287   1.085       .  S
C2282      C2283   1.400       .  A
C2283      C2284   1.414       .  A
C2283      C2290   1.445       .  S
C2285      H2288   1.085       .  S
C2285      C2286   1.400       .  A
C2286      C2289   1.444       .  S
C2289      N2291   1.157       .  T
C2290      N2292   1.158       .  T
C2293      C2294   1.404       .  A
C2294      H2299   1.085       .  S
C2294      C2295   1.401       .  A
C2295      C2296   1.416       .  A
C2295      C2302   1.443       .  S
C2297      H2300   1.083       .  S
C2297      C2298   1.401       .  A
C2298      C2301   1.443       .  S
C2301      N2303   1.157       .  T
C2302      N2304   1.158       .  T
C2305      C2310   1.417       .  A
C2306      H2311   1.082       .  S
C2306      C2307   1.401       .  A
C2307      C2314   1.445       .  S
C2308      C2309   1.402       .  A
C2309      H2312   1.081       .  S
C2309      C2310   1.397       .  A
C2310      C2313   1.444       .  S
C2313      N2315   1.157       .  T
C2314      N2316   1.158       .  T
C2317      C2318   1.403       .  A
C2318      H2323   1.085       .  S
C2318      C2319   1.400       .  A
C2319      C2320   1.414       .  A
C2319      C2326   1.444       .  S
C2321      H2324   1.085       .  S
C2321      C2322   1.401       .  A
C2322      C2325   1.444       .  S
C2325      N2327   1.158       .  T
C2326      N2328   1.157       .  T
C2329      C2334   1.415   1_545  A
C2330      H2335   1.085       .  S
C2330      C2331   1.399       .  A
C2331      C2338   1.444       .  S
C2332      C2333   1.403   1_545  A
C2333      H2336   1.085       .  S
C2333      C2334   1.398       .  A
C2334      C2337   1.445       .  S
C2337      N2339   1.157       .  T
C2338      N2340   1.158       .  T
C2341      C2342   1.404       .  A
C2342      H2347   1.084       .  S
C2342      C2343   1.400       .  A
C2343      C2350   1.442       .  S
C2344      C2345   1.402       .  A
C2345      H2348   1.083       .  S
C2345      C2346   1.393       .  A
C2346      C2349   1.445       .  S
C2349      N2351   1.157       .  T
C2350      N2352   1.157       .  T
C2353      C2354   1.402       .  A
C2354      H2359   1.084       .  S
C2354      C2355   1.397       .  A
C2355      C2356   1.414       .  A
C2355      C2362   1.445       .  S
C2357      H2360   1.084       .  S
C2357      C2358   1.402       .  A
C2358      C2361   1.443       .  S
C2361      N2363   1.157       .  T
C2362      N2364   1.157       .  T
C2365      C2366   1.403       .  A
C2366      H2371   1.084       .  S
C2366      C2367   1.397       .  A
C2367      C2374   1.444       .  S
C2368      C2369   1.404   1_545  A
C2369      H2372   1.084       .  S
C2369      C2370   1.397       .  A
C2370      C2373   1.444       .  S
C2373      N2375   1.157       .  T
C2374      N2376   1.157       .  T
C2377      C2378   1.406   1_455  A
C2378      H2383   1.085       .  S
C2378      C2379   1.404       .  A
C2379      C2386   1.444       .  S
C2380      C2381   1.403       .  A
C2381      H2384   1.084       .  S
C2381      C2382   1.398       .  A
C2382      C2385   1.444       .  S
C2385      N2387   1.157       .  T
C2386      N2388   1.157       .  T
C2389      C2394   1.412       .  A
C2390      H2395   1.085       .  S
C2390      C2391   1.401       .  A
C2391      C2398   1.443       .  S
C2392      C2393   1.404       .  A
C2393      H2396   1.085       .  S
C2393      C2394   1.399       .  A
C2394      C2397   1.444       .  S
C2397      N2399   1.157       .  T
C2398      N2400   1.157       .  T
C2401      C2402   1.402       .  A
C2402      H2407   1.085       .  S
C2402      C2403   1.398       .  A
C2403      C2410   1.444       .  S
C2404      C2405   1.404       .  A
C2405      H2408   1.085       .  S
C2405      C2406   1.403       .  A
C2406      C2409   1.444       .  S
C2409      N2411   1.157       .  T
C2410      N2412   1.157       .  T
C2413      C2418   1.414       .  A
C2414      H2419   1.085       .  S
C2414      C2415   1.400       .  A
C2415      C2422   1.440       .  S
C2416      C2417   1.404       .  A
C2417      H2420   1.085       .  S
C2417      C2418   1.399       .  A
C2418      C2421   1.444       .  S
C2421      N2423   1.157       .  T
C2422      N2424   1.156       .  T
