geometry optimzed in LAMMPS
_audit_creation_date              2020-11-30 
_audit_creation_method            'lammps2cif' 
_symmetry_space_group_name_H-M    'P1' 
_symmetry_Int_Tables_number       1 
_symmetry_cell_setting            triclinic 
loop_ 
_symmetry_equiv_pos_as_xyz 
  x,y,z 
_cell_length_a                    29.867871718725482 
_cell_length_b                    29.803801180001603 
_cell_length_c                    29.85529923370417 
_cell_angle_alpha                 89.91770757149426 
_cell_angle_beta                  90.30009908290516 
_cell_angle_gamma                 89.8615306140999 
loop_ 
_atom_site_label 
_atom_site_type_symbol 
_atom_site_fract_x 
_atom_site_fract_y 
_atom_site_fract_z 
_atom_site_charge 
Fe1        Fe  0.18790402  0.55709944  0.18893023     1.65780
Fe2        Fe  0.18797321  0.44196976  0.19012995     1.73250
Fe3        Fe  0.26225489  0.49973662  0.25469353     1.54420
O4          O  0.29576181  0.55203294  0.22512051    -0.82190
O5          O  0.18026138  0.41576066  0.25402379    -0.80490
O6          O  0.25011210  0.58439455  0.17568662    -0.84690
O7          O  0.18812680  0.58732862  0.25163442    -0.79550
O8          O  0.30048768  0.45588211  0.21775155    -0.81320
O9          O  0.12222832  0.46346943  0.19241819    -0.84070
C10         C  0.20612196  0.57849313  0.28931393     0.96700
C11         C  0.28763913  0.58151322  0.19560385     1.04140
O12         O  0.21257466  0.49968440  0.21135740    -1.13050
O13         O  0.19360685  0.46088722  0.12389248    -0.75480
O14         O  0.18586849  0.53495495  0.12318533    -0.78970
O15         O  0.22971705  0.54371070  0.29641642    -0.79660
C16         C  0.19043854  0.49775922  0.10285083     0.95600
O17         O  0.12245864  0.53763593  0.19964196    -0.77610
O18         O  0.25021934  0.41180233  0.18530527    -0.82810
C19         C  0.20634688  0.41802207  0.28762739     0.98230
C20         C  0.29031142  0.42052116  0.19640821     1.04140
O21         O  0.23691715  0.44718962  0.29097419    -0.78450
C22         C  0.10189209  0.50043881  0.19770177     1.02440
Fe23       Fe  0.82202175  0.44357171  0.18949061     1.65780
Fe24       Fe  0.81890225  0.55908096  0.18925906     1.73250
Fe25       Fe  0.74621361  0.49997874  0.25381771     1.54420
O26         O  0.71280104  0.44821520  0.22326973    -0.82190
O27         O  0.82607431  0.58606342  0.25307393    -0.80490
O28         O  0.76048219  0.41340912  0.17796570    -0.84690
O29         O  0.82458325  0.41499023  0.25298681    -0.79550
O30         O  0.70721889  0.54426044  0.21750312    -0.81320
O31         O  0.88503070  0.53912918  0.19221669    -0.84070
C32         C  0.80603652  0.42299017  0.29034414     0.96700
C33         C  0.72206423  0.41759225  0.19553852     1.04140
O34         O  0.79575820  0.50079941  0.21081284    -1.13050
O35         O  0.81335800  0.53929887  0.12314972    -0.75480
O36         O  0.82218794  0.46474643  0.12330068    -0.78970
O37         O  0.77910123  0.45563205  0.29548176    -0.79660
C38         C  0.81708405  0.50196578  0.10305132     0.95600
O39         O  0.88724386  0.46505010  0.19854058    -0.77610
O40         O  0.75636054  0.58829073  0.18363111    -0.82810
C41         C  0.80118542  0.58230116  0.28725373     0.98230
C42         C  0.71660940  0.57926692  0.19539156     1.04140
O43         O  0.77186423  0.55192140  0.29073920    -0.78450
C44         C  0.90673020  0.50280059  0.19643125     1.02440
Fe45       Fe  0.44682372  0.81724955  0.18782857     1.65780
Fe46       Fe  0.56094651  0.81944995  0.18926768     1.73250
Fe47       Fe  0.50478991  0.74791071  0.25825837     1.54420
O48         O  0.45237398  0.77654043  0.29340278    -0.82190
O49         O  0.58676631  0.75682417  0.17598298    -0.80490
O50         O  0.42098549  0.82950365  0.25067979    -0.84690
O51         O  0.41693125  0.75510132  0.18676309    -0.79550
O52         O  0.54906056  0.78261839  0.29892751    -0.81320
O53         O  0.53901087  0.82266008  0.12343258    -0.84070
C54         C  0.42598867  0.71576285  0.20030337     0.96700
C55         C  0.42409998  0.80791880  0.28729772     1.04140
O56         O  0.50418055  0.79481265  0.21190396    -1.13050
O57         O  0.54096765  0.88431911  0.20095869    -0.75480
O58         O  0.46799018  0.88319280  0.18570977    -0.78970
O59         O  0.46066336  0.70714295  0.22351404    -0.79660
C60         C  0.50390075  0.90411965  0.19464289     0.95600
O61         O  0.46628634  0.80620924  0.12267462    -0.77610
O62         O  0.59202805  0.81977885  0.25126759    -0.82810
C63         C  0.58490373  0.72016627  0.19752223     0.98230
C64         C  0.58353957  0.80587987  0.29050497     1.04140
O65         O  0.55719832  0.71335156  0.22897654    -0.78450
C66         C  0.50298537  0.81333164  0.10282241     1.02440
Fe67       Fe  0.44698128  0.18528931  0.18956940     1.65780
Fe68       Fe  0.56051768  0.18016046  0.18920094     1.73250
Fe69       Fe  0.50748858  0.25232357  0.25949990     1.54420
O70         O  0.45531706  0.28929757  0.23187939    -0.82190
O71         O  0.58454376  0.16418661  0.25199447    -0.80490
O72         O  0.42558021  0.24961891  0.17609308    -0.84690
O73         O  0.41655632  0.18719398  0.25108930    -0.79550
O74         O  0.55214295  0.29144636  0.22361076    -0.81320
O75         O  0.53526763  0.11600820  0.18540729    -0.84070
C76         C  0.42574471  0.19959054  0.29062700     0.96700
C77         C  0.42838360  0.28531367  0.19906245     1.04140
O78         O  0.50497043  0.20589068  0.21296081    -1.13050
O79         O  0.54167716  0.19422316  0.12420082    -0.75480
O80         O  0.46862498  0.18106432  0.12443368    -0.78970
O81         O  0.46255437  0.21863565  0.30068414    -0.79660
C82         C  0.50460841  0.18919701  0.10381763     0.95600
O83         O  0.46239446  0.11892662  0.20083503    -0.77610
O84         O  0.59469145  0.24016388  0.19036332    -0.82810
C85         C  0.58632290  0.18811559  0.28696435     0.98230
C86         C  0.58745680  0.28012114  0.20287656     1.04140
O87         O  0.56065785  0.22177683  0.29280164    -0.78450
C88         C  0.49821824  0.09726204  0.19378798     1.02440
Fe89       Fe  0.56335891  0.18587129  0.82361621     1.65780
Fe90       Fe  0.44919127  0.18305418  0.82264898     1.73250
Fe91       Fe  0.50517635  0.25372232  0.75208961     1.54420
O92         O  0.55547342  0.29100252  0.78195083    -0.82190
O93         O  0.42379519  0.17049968  0.75937561    -0.80490
O94         O  0.58701315  0.24976933  0.83567283    -0.84690
O95         O  0.59471767  0.18475119  0.76291325    -0.79550
O96         O  0.45831777  0.29288080  0.78507411    -0.81320
O97         O  0.47282569  0.11784613  0.82425591    -0.84070
C98         C  0.58711997  0.19846074  0.72355577     0.96700
C99         C  0.58335280  0.28622519  0.81385832     1.04140
O100        O  0.50583553  0.20763723  0.79934588    -1.13050
O101        O  0.46772553  0.19340306  0.88864981    -0.75480
O102        O  0.54120562  0.18415184  0.88823255    -0.78970
O103        O  0.55203821  0.22043852  0.71317697    -0.79660
C104        C  0.50497110  0.18974719  0.90905347     0.95600
O105        O  0.54622746  0.11977957  0.81364453    -0.77610
O106        O  0.41721180  0.24443975  0.82382403    -0.82810
C107        C  0.42706525  0.19101711  0.72220460     0.98230
C108        C  0.42453353  0.28365463  0.80904569     1.04140
O109        O  0.45490763  0.22249998  0.71598447    -0.78450
C110        C  0.51005250  0.09816829  0.81811938     1.02440
Fe111      Fe  0.82284722  0.18339071  0.56210084     1.65780
Fe112      Fe  0.82077606  0.18435617  0.44746290     1.73250
Fe113      Fe  0.74854463  0.24933723  0.50663423     1.54410
O114        O  0.70992811  0.21025114  0.54791384    -0.82190
O115        O  0.81822158  0.24798806  0.41784520    -0.80490
O116        O  0.76113209  0.18185063  0.59423316    -0.84690
O117        O  0.83437199  0.24738924  0.58657002    -0.79550
O118        O  0.71512368  0.22205555  0.45247357    -0.81320
O119        O  0.88653922  0.19690274  0.46577751    -0.84070
C120        C  0.80731231  0.28024763  0.58748764     0.96700
C121        C  0.72066631  0.19156764  0.58457369     1.04140
O122        O  0.79745062  0.20556087  0.50531874    -1.13050
O123        O  0.82498505  0.11805207  0.46931528    -0.75480
O124        O  0.81386370  0.11739422  0.54323372    -0.78970
O125        O  0.77364755  0.28320883  0.56158138    -0.79660
C126        C  0.81874166  0.09728401  0.50604932     0.95600
O127        O  0.88799879  0.18257580  0.53887599    -0.77610
O128        O  0.75790115  0.16932642  0.42231340    -0.82810
C129        C  0.80368101  0.28651944  0.42939319     0.98230
C130        C  0.72099171  0.19031429  0.42492700     1.04140
O131        O  0.78278855  0.29255348  0.46573826    -0.78450
C132        C  0.90775867  0.19110288  0.50228537     1.02440
Fe133      Fe  0.18815253  0.18599624  0.44991583     1.65780
Fe134      Fe  0.18798780  0.18456955  0.56462106     1.73250
Fe135      Fe  0.26196653  0.25040220  0.50818006     1.54420
O136        O  0.30071918  0.21319072  0.46524044    -0.82190
O137        O  0.18901155  0.24706026  0.59536641    -0.80490
O138        O  0.25026974  0.18405325  0.41880321    -0.84690
O139        O  0.17774914  0.25026592  0.42572027    -0.79550
O140        O  0.29538615  0.22035506  0.56074465    -0.81320
O141        O  0.12251867  0.19627380  0.54527481    -0.84070
C142        C  0.20401029  0.28363061  0.42711261     0.96700
C143        C  0.29044842  0.19428454  0.42869976     1.04140
O144        O  0.21251640  0.20713858  0.50767164    -1.13050
O145        O  0.18488909  0.11919451  0.54176436    -0.75480
O146        O  0.19665576  0.11959389  0.46825965    -0.78970
O147        O  0.23620763  0.28642809  0.45492268    -0.79660
C148        C  0.19168144  0.09878942  0.50512473     0.95600
O149        O  0.12228411  0.18584064  0.47142879    -0.77610
O150        O  0.25041589  0.16975808  0.59131935    -0.82810
C151        C  0.20618952  0.28498845  0.58646716     0.98230
C152        C  0.28787538  0.18957683  0.58903836     1.04140
O153        O  0.22928755  0.29248637  0.55171757    -0.78450
C154        C  0.10205267  0.19179780  0.50821777     1.02440
Fe155      Fe  0.18733217  0.44362546  0.82137757     1.65780
Fe156      Fe  0.18714359  0.55831937  0.81946895     1.73250
Fe157      Fe  0.26140375  0.50048234  0.75595140     1.54410
O158        O  0.29376857  0.44662503  0.78449271    -0.82190
O159        O  0.17716842  0.58264542  0.75498254    -0.80490
O160        O  0.24925977  0.41616278  0.83561462    -0.84690
O161        O  0.18791819  0.41370863  0.75870832    -0.79550
O162        O  0.30025715  0.54291740  0.79427891    -0.81320
O163        O  0.12155798  0.53659651  0.81947418    -0.84070
C164        C  0.20442155  0.42314854  0.72069498     0.96700
C165        C  0.28592865  0.41772397  0.81453198     1.04140
O166        O  0.21185836  0.50065766  0.79887944    -1.13050
O167        O  0.19528484  0.54028281  0.88580575    -0.75480
O168        O  0.18470619  0.46644184  0.88697292    -0.78970
O169        O  0.22789234  0.45783592  0.71330365    -0.79660
C170        C  0.19053401  0.50366977  0.90701944     0.95600
O171        O  0.12223125  0.46279885  0.80953638    -0.77610
O172        O  0.24902725  0.58898972  0.82205338    -0.82810
C173        C  0.20453820  0.58206380  0.72258481     0.98230
C174        C  0.28935012  0.57971865  0.81263022     1.04140
O175        O  0.23696501  0.55460758  0.72068346    -0.78450
C176        C  0.10149170  0.49971944  0.81323286     1.02440
Fe177      Fe  0.18702611  0.81452326  0.44784809     1.65780
Fe178      Fe  0.19181535  0.81822785  0.56265006     1.73250
Fe179      Fe  0.26350110  0.75100667  0.50433067     1.54420
O180        O  0.23574608  0.71360892  0.45369894    -0.82190
O181        O  0.25518928  0.83139249  0.58788289    -0.80490
O182        O  0.17807715  0.75003475  0.42330907    -0.84690
O183        O  0.24737896  0.81895686  0.41521030    -0.79550
O184        O  0.23305559  0.71011850  0.55066335    -0.81320
O185        O  0.18939151  0.88352039  0.53926237    -0.84070
C186        C  0.28768311  0.80791602  0.42268204     0.96700
C187        C  0.20384431  0.71619058  0.42562559     1.04140
O188        O  0.21401375  0.79448127  0.50504633    -1.13050
O189        O  0.12548703  0.80785966  0.54589028    -0.75480
O190        O  0.12282349  0.81242226  0.47181764    -0.78970
O191        O  0.29954556  0.78718183  0.45802594    -0.79660
C192        C  0.10366534  0.80867964  0.50939937     0.95600
O193        O  0.19353648  0.88126425  0.46503589    -0.77610
O194        O  0.19230846  0.75601576  0.59353011    -0.82810
C195        C  0.29266432  0.81163811  0.58381217     0.98230
C196        C  0.20972223  0.71805289  0.58519894     1.04140
O197        O  0.29926144  0.78162360  0.55466624    -0.78450
C198        C  0.19194708  0.90303557  0.50147171     1.02440
Fe199      Fe  0.82243608  0.81675634  0.44935514     1.65780
Fe200      Fe  0.82395111  0.81439148  0.56430024     1.73250
Fe201      Fe  0.74908390  0.75015679  0.50644173     1.54410
O202        O  0.71408001  0.78195062  0.45597039    -0.82190
O203        O  0.83213064  0.74968448  0.58897619    -0.80490
O204        O  0.76031764  0.82887273  0.42154035    -0.84690
O205        O  0.82413163  0.75410213  0.41924023    -0.79550
O206        O  0.71170814  0.78498507  0.55282707    -0.81320
O207        O  0.88940351  0.81208995  0.54272793    -0.84070
C208        C  0.80524646  0.71672202  0.42667847     0.96700
C209        C  0.72247352  0.81023422  0.42537649     1.04140
O210        O  0.79844927  0.79382342  0.50661009    -1.13050
O211        O  0.81852312  0.88127649  0.54615288    -0.75480
O212        O  0.82299017  0.88261702  0.47161163    -0.78970
O213        O  0.77976852  0.70988479  0.45988203    -0.79660
C214        C  0.82051594  0.90241771  0.50921264     0.95600
O215        O  0.88780160  0.80705478  0.46866407    -0.77610
O216        O  0.76238094  0.81937827  0.59512562    -0.82810
C217        C  0.80899824  0.71415729  0.58466869     0.98230
C218        C  0.72250067  0.80685892  0.58764810     1.04140
O219        O  0.77724944  0.71146893  0.55650336    -0.78450
C220        C  0.90905937  0.80853041  0.50537528     1.02440
Fe221      Fe  0.44890987  0.81567647  0.82427075     1.65780
Fe222      Fe  0.56306168  0.81668553  0.82362051     1.73250
Fe223      Fe  0.50597727  0.74670277  0.75314434     1.54410
O224        O  0.46183784  0.70585331  0.78710228    -0.82190
O225        O  0.59303795  0.81862851  0.76150761    -0.80490
O226        O  0.41957572  0.75326560  0.82588876    -0.84690
O227        O  0.42239529  0.82766290  0.76145071    -0.79550
O228        O  0.55836501  0.71109545  0.78200215    -0.81320
O229        O  0.54334204  0.88221325  0.81384118    -0.84070
C230        C  0.42499426  0.80687452  0.72451474     0.96700
C231        C  0.42804331  0.71422852  0.81124461     1.04140
O232        O  0.50597670  0.79291068  0.80034703    -1.13050
O233        O  0.54186296  0.81833682  0.88947576    -0.75480
O234        O  0.46835980  0.80581266  0.88985173    -0.78970
O235        O  0.45365574  0.77605816  0.71771747    -0.79660
C236        C  0.50533259  0.81177570  0.90990611     0.95600
O237        O  0.47007483  0.88164446  0.82555222    -0.77610
O238        O  0.58915552  0.75349652  0.83523087    -0.82810
C239        C  0.58435112  0.80508558  0.72213025     0.98230
C240        C  0.58683299  0.71716110  0.81320514     1.04140
O241        O  0.55010048  0.78165097  0.71317579    -0.78450
C242        C  0.50629856  0.90256425  0.81862936     1.02440
Fe243      Fe  0.82232970  0.55535531  0.82265196     1.65780
Fe244      Fe  0.82147711  0.44058040  0.82503981     1.73250
Fe245      Fe  0.75187724  0.49741149  0.75394111     1.54410
O246        O  0.71221477  0.54281213  0.78769955    -0.82190
O247        O  0.82007999  0.40746199  0.76394133    -0.80490
O248        O  0.76015724  0.58616693  0.82454458    -0.84690
O249        O  0.83350784  0.58034149  0.75887835    -0.79550
O250        O  0.71689883  0.44608673  0.78438243    -0.81320
O251        O  0.88664247  0.45829785  0.81294223    -0.84070
C252        C  0.81167879  0.57725343  0.72242401     0.96700
C253        C  0.72075997  0.57733265  0.81095684     1.04140
O254        O  0.79859868  0.49781235  0.80047587    -1.13050
O255        O  0.82567598  0.46399397  0.89020813    -0.75480
O256        O  0.81318152  0.53768867  0.88893297    -0.78970
O257        O  0.78051966  0.54871523  0.71730923    -0.79660
C258        C  0.81910483  0.50110948  0.90985940     0.95600
O259        O  0.88789089  0.53227301  0.82343457    -0.77610
O260        O  0.75841737  0.41708043  0.83936769    -0.82810
C261        C  0.80629103  0.41598770  0.72455496     0.98230
C262        C  0.72230524  0.41905695  0.81697832     1.04140
O263        O  0.78561610  0.45180720  0.71437044    -0.78450
C264        C  0.90764296  0.49494655  0.81723265     1.02440
C265        C  0.60672335  0.63609950  0.81589700    -0.20820
C266        C  0.61996881  0.68087047  0.82205732    -0.07380
C267        C  0.66568869  0.69017658  0.83065692     0.13490
C268        C  0.69700378  0.65501622  0.82976327    -0.20870
C269        C  0.68439100  0.61063332  0.81985723    -0.07390
C270        C  0.63810672  0.60084118  0.81486168     0.13470
C271        C  0.62109171  0.55367999  0.80818836    -0.24220
H272        H  0.57160362  0.62884537  0.81019450     0.14760
H273        H  0.73211042  0.66294853  0.83431532     0.14790
C274        C  0.68251656  0.73734549  0.83781135    -0.24170
H275        H  0.58394793  0.55225363  0.80909051     0.05000
H276        H  0.63408494  0.53155003  0.83526140     0.08230
H277        H  0.63153333  0.54065715  0.77505196     0.08230
H278        H  0.66735487  0.75172700  0.86848881     0.08210
H279        H  0.67391972  0.75854296  0.80836982     0.08210
H280        H  0.71944024  0.73837047  0.84225464     0.04990
C281        C  0.84124112  0.68297094  0.65559244    -0.20820
C282        C  0.81725138  0.67539730  0.61563736    -0.07380
C283        C  0.79869436  0.63212325  0.60840470     0.13490
C284        C  0.80069228  0.59999077  0.64280764    -0.20870
C285        C  0.82038367  0.60927198  0.68468068    -0.07390
C286        C  0.84314453  0.65074177  0.69010063     0.13470
C287        C  0.86811110  0.66255317  0.73248411    -0.24220
H288        H  0.85670938  0.71536558  0.66104906     0.14760
H289        H  0.78480368  0.56777783  0.63743574     0.14790
C290        C  0.77611809  0.61902697  0.56498425    -0.24170
H291        H  0.88440923  0.69593059  0.73015754     0.05000
H292        H  0.89486864  0.63739832  0.73891821     0.08230
H293        H  0.84463894  0.66375678  0.76116262     0.08230
H294        H  0.79871955  0.62598082  0.53639252     0.08210
H295        H  0.74413511  0.63757604  0.56076574     0.08210
H296        H  0.76782587  0.58272428  0.56411109     0.04990
C297        C  0.66306341  0.81641179  0.69977469    -0.20820
C298        C  0.61795786  0.81376073  0.68653045    -0.07380
C299        C  0.60736355  0.81535446  0.64024210     0.13490
C300        C  0.64226617  0.81621468  0.60874572    -0.20870
C301        C  0.68753264  0.81529659  0.62208178    -0.07390
C302        C  0.69790364  0.81666369  0.66852548     0.13470
C303        C  0.74539336  0.81537375  0.68611075    -0.24220
H304        H  0.67143927  0.81548448  0.73513413     0.14760
H305        H  0.63409071  0.81594353  0.57333189     0.14790
C306        C  0.55960958  0.81628356  0.62359773    -0.24170
H307        H  0.74672319  0.81500681  0.72330206     0.05000
H308        H  0.76378006  0.84561892  0.67479675     0.08230
H309        H  0.76256806  0.78454616  0.67422876     0.08230
H310        H  0.54120492  0.84433997  0.63966856     0.08210
H311        H  0.54277096  0.78404827  0.63113388     0.08210
H312        H  0.55779146  0.82127838  0.58675552     0.04990
C313        C  0.03106453  0.82089606  0.47073849    -0.20820
C314        C  0.05380654  0.80662902  0.50962489    -0.07380
C315        C  0.02834437  0.79160324  0.54670243     0.13490
C316        C  0.98136868  0.79186742  0.54374848    -0.20870
C317        C  0.95880260  0.80664659  0.50496231    -0.07390
C318        C  0.98429221  0.82123258  0.46779189     0.13470
C319        C  0.96303433  0.83875544  0.42520106    -0.24220
H320        H  0.05004255  0.83278290  0.44225939     0.14760
H321        H  0.96203934  0.78045666  0.57219859     0.14790
C322        C  0.04984083  0.77471901  0.58936123    -0.24170
H323        H  0.98837342  0.85090394  0.40095279     0.05000
H324        H  0.94052603  0.86739108  0.43292637     0.08230
H325        H  0.94397044  0.81161577  0.40836397     0.08230
H326        H  0.06853421  0.80224492  0.60597770     0.08210
H327        H  0.07280804  0.74640416  0.58181603     0.08210
H328        H  0.02460618  0.76238392  0.61362611     0.04990
C329        C  0.31567269  0.82844022  0.66173374    -0.20820
C330        C  0.32863490  0.82021109  0.61734237    -0.07380
C331        C  0.37471770  0.81390045  0.60794059     0.13490
C332        C  0.40576840  0.81255827  0.64348697    -0.20870
C333        C  0.39220077  0.81718939  0.68823917    -0.07390
C334        C  0.34656598  0.82656644  0.69729917     0.13470
C335        C  0.32927768  0.83148758  0.74444281    -0.24220
H336        H  0.28049708  0.83322692  0.66914217     0.14760
H337        H  0.44077859  0.80621002  0.63639155     0.14790
C338        C  0.39164423  0.80845386  0.56072074    -0.24170
H339        H  0.29242753  0.83649968  0.74512939     0.05000
H340        H  0.34481910  0.86112924  0.76067489     0.08230
H341        H  0.33702524  0.80074626  0.76409736     0.08230
H342        H  0.37953894  0.83672152  0.53960192     0.08210
H343        H  0.38018031  0.77616430  0.54633176     0.08210
H344        H  0.42881095  0.80831360  0.55956822     0.04990
C345        C  0.03020611  0.46092152  0.82916707    -0.20820
C346        C  0.05184687  0.49901611  0.81216936    -0.07380
C347        C  0.02567955  0.53505910  0.79543432     0.13490
C348        C  0.97883705  0.53245236  0.79730963    -0.20870
C349        C  0.95721708  0.49456170  0.81485046    -0.07390
C350        C  0.98341762  0.45805384  0.83066638     0.13470
C351        C  0.96280775  0.41641113  0.85050064    -0.24220
H352        H  0.05011841  0.43332498  0.84213211     0.14760
H353        H  0.95889267  0.56012661  0.78454322     0.14790
C354        C  0.04657050  0.57547611  0.77374731    -0.24170
H355        H  0.98857237  0.39283469  0.86363859     0.05000
H356        H  0.94336020  0.39822151  0.82453065     0.08230
H357        H  0.94066019  0.42565126  0.87871481     0.08230
H358        H  0.06852682  0.56408260  0.74616112     0.08210
H359        H  0.06625152  0.59483694  0.79865742     0.08210
H360        H  0.02101043  0.59851181  0.75930403     0.04990
C361        C  0.36978162  0.60073251  0.82171749    -0.20820
C362        C  0.32456070  0.61421337  0.82049353    -0.07380
C363        C  0.31443802  0.66082459  0.82146431     0.13490
C364        C  0.34942798  0.69194623  0.82150743    -0.20870
C365        C  0.39442182  0.67853903  0.81934775    -0.07390
C366        C  0.40483520  0.63220355  0.82092565     0.13470
C367        C  0.45254343  0.61555469  0.82199864    -0.24220
H368        H  0.37783425  0.56525910  0.82169114     0.14760
H369        H  0.34128265  0.72739416  0.82043187     0.14790
C370        C  0.26715034  0.67889105  0.81960533    -0.24170
H371        H  0.45426371  0.57861470  0.82670465     0.05000
H372        H  0.47090138  0.63146861  0.85021645     0.08230
H373        H  0.46948914  0.62340535  0.78997579     0.08230
H374        H  0.24832851  0.66776685  0.84958224     0.08210
H375        H  0.25016468  0.66725937  0.78856068     0.08210
H376        H  0.26622094  0.71615264  0.81925186     0.04990
C377        C  0.16576349  0.66404583  0.63139599    -0.20820
C378        C  0.20710210  0.68285202  0.61960910    -0.07380
C379        C  0.24629944  0.66977914  0.64279746     0.13490
C380        C  0.24364807  0.63681813  0.67589261    -0.20870
C381        C  0.20270093  0.61702853  0.68738469    -0.07390
C382        C  0.16308299  0.63119878  0.66532054     0.13470
C383        C  0.11836124  0.61162245  0.67701496    -0.24220
H384        H  0.13571361  0.67506457  0.61407698     0.14760
H385        H  0.27387274  0.62697395  0.69366315     0.14790
C386        C  0.29086017  0.69185874  0.63404681    -0.24170
H387        H  0.09128174  0.62483745  0.65500908     0.05000
H388        H  0.11011831  0.62071874  0.71200165     0.08230
H389        H  0.11936672  0.57455138  0.67341497     0.08230
H390        H  0.28807903  0.72848345  0.64013868     0.08210
H391        H  0.30129347  0.68591403  0.59894002     0.08210
H392        H  0.31764803  0.67855694  0.65635721     0.04990
C393        C  0.18550765  0.02624704  0.46430160    -0.20820
C394        C  0.19311477  0.04870454  0.50500951    -0.07380
C395        C  0.20188561  0.02277418  0.54403094     0.13490
C396        C  0.20176948  0.97576916  0.54118030    -0.20870
C397        C  0.19322144  0.95320621  0.50066304    -0.07390
C398        C  0.18541655  0.97918400  0.46143949     0.13470
C399        C  0.17608269  0.95825182  0.41636432    -0.24220
H400        H  0.17887664  0.04571142  0.43430581     0.14760
H401        H  0.20848142  0.95645295  0.57125224     0.14790
C402        C  0.21230470  0.04375384  0.58889708    -0.24170
H403        H  0.16946698  0.98390945  0.39012258     0.05000
H404        H  0.14604065  0.93648893  0.41835376     0.08230
H405        H  0.20551468  0.93838712  0.40535670     0.08230
H406        H  0.18267453  0.06234849  0.60139979     0.08210
H407        H  0.24135632  0.06671463  0.58583097     0.08210
H408        H  0.22099733  0.01817976  0.61462507     0.04990
C409        C  0.24223464  0.36717072  0.67520448    -0.20820
C410        C  0.20211663  0.38917374  0.68517171    -0.07380
C411        C  0.16214501  0.37645029  0.66324339     0.13490
C412        C  0.16360464  0.34216547  0.63071922    -0.20870
C413        C  0.20419394  0.32066707  0.62044070    -0.07390
C414        C  0.24370664  0.33270834  0.64365836     0.13470
C415        C  0.28727987  0.30801337  0.63659632    -0.24220
H416        H  0.27251538  0.37633525  0.69317249     0.14760
H417        H  0.13332470  0.33233728  0.61321177     0.14790
C418        C  0.11856247  0.39950234  0.67362916    -0.24170
H419        H  0.31436927  0.32090376  0.65867939     0.05000
H420        H  0.29842366  0.31185428  0.60141793     0.08230
H421        H  0.28269562  0.27188992  0.64435283     0.08230
H422        H  0.12153824  0.43598168  0.66666478     0.08210
H423        H  0.11015355  0.39456467  0.70947421     0.08210
H424        H  0.09063064  0.38600448  0.65302306     0.04990
C425        C  0.79521731  0.97500772  0.47619189    -0.20820
C426        C  0.81979958  0.95232027  0.50956731    -0.07380
C427        C  0.84419121  0.97771960  0.54143858     0.13490
C428        C  0.84282817  0.02482183  0.53941329    -0.20870
C429        C  0.81834377  0.04746063  0.50604774    -0.07390
C430        C  0.79402605  0.02217082  0.47409138     0.13470
C431        C  0.76554175  0.04460123  0.43869259    -0.24220
H432        H  0.77644069  0.95565893  0.45181513     0.14760
H433        H  0.86171260  0.04421826  0.56366933     0.14790
C434        C  0.87325163  0.95558906  0.57656155    -0.24170
H435        H  0.74686423  0.01974145  0.41821199     0.05000
H436        H  0.78690557  0.06430385  0.41565167     0.08230
H437        H  0.74074181  0.06717267  0.45476020     0.08230
H438        H  0.89790366  0.93300938  0.56027219     0.08210
H439        H  0.85226891  0.93606580  0.60009910     0.08210
H440        H  0.89218273  0.98060313  0.59661146     0.04990
C441        C  0.02993451  0.22077569  0.47745287    -0.20820
C442        C  0.05247270  0.19250831  0.50776801    -0.07380
C443        C  0.02739039  0.16379795  0.53568563     0.13490
C444        C  0.98048005  0.16444044  0.53296885    -0.20870
C445        C  0.95761225  0.19274195  0.50279110    -0.07390
C446        C  0.98283617  0.22155938  0.47476762     0.13470
C447        C  0.96060056  0.25418378  0.44301200    -0.24220
H448        H  0.04936801  0.24264524  0.45600446     0.14760
H449        H  0.96148353  0.14197029  0.55417743     0.14790
C450        C  0.04994166  0.13101923  0.56710161    -0.24170
H451        H  0.98543681  0.27592610  0.42597546     0.05000
H452        H  0.93727643  0.27626604  0.46173115     0.08230
H453        H  0.94195798  0.23574957  0.41663474     0.08230
H454        H  0.06937544  0.14937830  0.59295223     0.08210
H455        H  0.07273511  0.10872493  0.54797455     0.08210
H456        H  0.02528107  0.10952894  0.58469581     0.04990
C457        C  0.77713267  0.31442103  0.65523789    -0.20820
C458        C  0.81119114  0.31405170  0.62323373    -0.07380
C459        C  0.84531519  0.34672866  0.62508132     0.13490
C460        C  0.84392123  0.37986275  0.65883593    -0.20870
C461        C  0.80927335  0.38030185  0.69051970    -0.07390
C462        C  0.77582391  0.34693168  0.68887422     0.13470
C463        C  0.73811539  0.34596405  0.72222881    -0.24220
H464        H  0.75103777  0.28919949  0.65358155     0.14760
H465        H  0.86943989  0.40561610  0.66021580     0.14790
C466        C  0.88207454  0.34730213  0.59082655    -0.24170
H467        H  0.71487645  0.31753615  0.71614686     0.05000
H468        H  0.71851926  0.37757244  0.72001166     0.08230
H469        H  0.75202853  0.34223677  0.75650033     0.08230
H470        H  0.86741278  0.35129155  0.55679464     0.08210
H471        H  0.90117074  0.31533297  0.59238688     0.08210
H472        H  0.90578216  0.37536310  0.59672329     0.04990
C473        C  0.46931160  0.02565466  0.81218501    -0.20820
C474        C  0.51053526  0.04807914  0.81638567    -0.07380
C475        C  0.55025881  0.02204518  0.82005536     0.13490
C476        C  0.54730354  0.97506383  0.82024248    -0.20870
C477        C  0.50602704  0.95264848  0.81693507    -0.07390
C478        C  0.46635046  0.97865781  0.81243678     0.13470
C479        C  0.42055453  0.95785907  0.80739373    -0.24220
H480        H  0.43877055  0.04506985  0.80880694     0.14760
H481        H  0.57783800  0.95566251  0.82369780     0.14790
C482        C  0.59609817  0.04279372  0.82471424    -0.24170
H483        H  0.39402715  0.98354409  0.80217053     0.05000
H484        H  0.41180190  0.93901082  0.83820512     0.08230
H485        H  0.41996283  0.93517920  0.77791890     0.08230
H486        H  0.59736882  0.06438816  0.85496765     0.08210
H487        H  0.60399083  0.06276916  0.79436336     0.08210
H488        H  0.62281171  0.01704915  0.82839228     0.04990
C489        C  0.36542168  0.39649727  0.82377168    -0.20820
C490        C  0.32050040  0.38314167  0.82255464    -0.07380
C491        C  0.31012988  0.33690952  0.82113859     0.13490
C492        C  0.34505610  0.30541175  0.81924264    -0.20870
C493        C  0.39015201  0.31880265  0.81765014    -0.07390
C494        C  0.40031987  0.36502826  0.82136648     0.13470
C495        C  0.44765226  0.38163426  0.82305262    -0.24220
H496        H  0.37319649  0.43200580  0.82487101     0.14760
H497        H  0.33687225  0.27011232  0.81640851     0.14790
C498        C  0.26243287  0.32061243  0.81829975    -0.24170
H499        H  0.44935847  0.41831455  0.82938584     0.05000
H500        H  0.46416999  0.37525307  0.79050326     0.08230
H501        H  0.46577496  0.36429621  0.85064760     0.08230
H502        H  0.24573249  0.33508491  0.78824344     0.08210
H503        H  0.24395491  0.33068842  0.84884700     0.08210
H504        H  0.26062533  0.28349071  0.81564851     0.04990
C505        C  0.36872651  0.18559369  0.60860334    -0.20820
C506        C  0.32409044  0.17893063  0.62178626    -0.07380
C507        C  0.31513674  0.16895911  0.66727980     0.13490
C508        C  0.35039895  0.16958676  0.69857931    -0.20870
C509        C  0.39429039  0.18069051  0.68602666    -0.07390
C510        C  0.40391277  0.18666909  0.63999496     0.13470
C511        C  0.45095425  0.19434313  0.62351166    -0.24220
H512        H  0.37588939  0.19211913  0.57362161     0.14760
H513        H  0.34293633  0.16445464  0.73371307     0.14790
C514        C  0.26828269  0.16074677  0.68394035    -0.24170
H515        H  0.45253410  0.19409211  0.58634137     0.05000
H516        H  0.47336998  0.16734737  0.63618366     0.08230
H517        H  0.46349007  0.22745927  0.63478282     0.08230
H518        H  0.25409995  0.13057970  0.66740933     0.08210
H519        H  0.24683865  0.19040840  0.67677287     0.08210
H520        H  0.26759680  0.15476727  0.72066314     0.04990
C521        C  0.65761952  0.31198782  0.84154874    -0.20820
C522        C  0.61545616  0.32322228  0.82354104    -0.07380
C523        C  0.60709202  0.36849155  0.81143754     0.13490
C524        C  0.64198701  0.39971259  0.81322994    -0.20870
C525        C  0.68530469  0.38736742  0.82682010    -0.07390
C526        C  0.69262817  0.34334640  0.84350486     0.13470
C527        C  0.73745600  0.32813052  0.86148460    -0.24220
H528        H  0.66415782  0.27771221  0.85186687     0.14760
H529        H  0.63572618  0.43384092  0.80218920     0.14790
C530        C  0.56146465  0.38481817  0.79755669    -0.24170
H531        H  0.73679244  0.29255442  0.87258420     0.05000
H532        H  0.74690314  0.34881972  0.89092211     0.08230
H533        H  0.76345594  0.33107080  0.83525886     0.08230
H534        H  0.53762745  0.37555415  0.82415741     0.08210
H535        H  0.55127459  0.37008674  0.76501305     0.08210
H536        H  0.56028546  0.42187407  0.79363139     0.04990
C537        C  0.69925363  0.18850826  0.66441700    -0.20820
C538        C  0.68573158  0.18515657  0.61943864    -0.07380
C539        C  0.63936223  0.18136829  0.60961215     0.13490
C540        C  0.60805406  0.18381887  0.64447406    -0.20870
C541        C  0.62162604  0.19002345  0.68901467    -0.07390
C542        C  0.66808845  0.19145316  0.69922097     0.13470
C543        C  0.68552225  0.19901706  0.74619330    -0.24220
H544        H  0.73455524  0.19159916  0.67235579     0.14760
H545        H  0.57259628  0.18207687  0.63675280     0.14790
C546        C  0.62226211  0.17499951  0.56267383    -0.24170
H547        H  0.72257358  0.20201487  0.74716174     0.05000
H548        H  0.67645137  0.17027018  0.76796843     0.08230
H549        H  0.67139230  0.23060050  0.75995370     0.08230
H550        H  0.63939905  0.14584974  0.54716599     0.08210
H551        H  0.62816573  0.20593032  0.54299263     0.08210
H552        H  0.58567037  0.16846134  0.56180511     0.04990
C553        C  0.54420986  0.18575545  0.03129132    -0.20820
C554        C  0.50370256  0.19164678  0.05408163    -0.07380
C555        C  0.46394767  0.19913625  0.02883921     0.13490
C556        C  0.46589241  0.19890900  0.98190621    -0.20870
C557        C  0.50624347  0.19158263  0.95898768    -0.07390
C558        C  0.54629232  0.18564170  0.98445065     0.13470
C559        C  0.59173786  0.17875986  0.96348983    -0.24220
H560        H  0.57471558  0.18030977  0.05033691     0.14760
H561        H  0.43528032  0.20419816  0.96300762     0.14790
C562        C  0.41924560  0.20816938  0.05047672    -0.24170
H563        H  0.61870451  0.17520761  0.98900735     0.05000
H564        H  0.60040456  0.20814886  0.94236801     0.08230
H565        H  0.59184736  0.14755556  0.94322363     0.08230
H566        H  0.42198804  0.23727073  0.07351234     0.08210
H567        H  0.40784824  0.17804381  0.06904420     0.08210
H568        H  0.39287679  0.21624868  0.02535481     0.04990
C569        C  0.31305090  0.19718642  0.34955072    -0.20820
C570        C  0.32559531  0.18860687  0.39407134    -0.07380
C571        C  0.37137436  0.18057542  0.40415316     0.13490
C572        C  0.40334604  0.18304755  0.36964450    -0.20870
C573        C  0.39078840  0.19339043  0.32539016    -0.07390
C574        C  0.34474703  0.20028528  0.31530531     0.13470
C575        C  0.32854936  0.21394599  0.26920437    -0.24220
H576        H  0.27821353  0.20408366  0.34178635     0.14760
H577        H  0.43841330  0.17749643  0.37735940     0.14790
C578        C  0.38677139  0.16885235  0.45089698    -0.24170
H579        H  0.29209551  0.22138836  0.26862923     0.05000
H580        H  0.33438499  0.18641007  0.24494636     0.08230
H581        H  0.34623078  0.24475448  0.25820598     0.08230
H582        H  0.36785761  0.13935438  0.46332024     0.08210
H583        H  0.38164065  0.19769007  0.47374493     0.08210
H584        H  0.42297305  0.16029907  0.45187986     0.04990
C585        C  0.69631571  0.16601134  0.34918708    -0.20820
C586        C  0.68450556  0.17997637  0.39240063    -0.07380
C587        C  0.63875842  0.18806762  0.40173945     0.13490
C588        C  0.60726864  0.18693323  0.36682870    -0.20870
C589        C  0.61984452  0.17798488  0.32251745    -0.07390
C590        C  0.66500814  0.16530501  0.31389802     0.13470
C591        C  0.68332754  0.15346145  0.26833717    -0.24220
H592        H  0.73111004  0.15865842  0.34193429     0.14760
H593        H  0.57258562  0.19492218  0.37395661     0.14790
C594        C  0.62243775  0.19699737  0.44842830    -0.24170
H595        H  0.71241634  0.17529589  0.26081604     0.05000
H596        H  0.69509727  0.11809902  0.26874032     0.08230
H597        H  0.65966675  0.15742807  0.24026118     0.08230
H598        H  0.63480081  0.22980216  0.46072586     0.08210
H599        H  0.63426262  0.16948605  0.47050108     0.08210
H600        H  0.58530070  0.19797001  0.45010614     0.04990
C601        C  0.47359269  0.97606395  0.16617028    -0.20820
C602        C  0.50225398  0.95367091  0.19632991    -0.07380
C603        C  0.52832663  0.97901583  0.22691337     0.13490
C604        C  0.52569073  0.02598918  0.22570234    -0.20870
C605        C  0.49738424  0.04806498  0.19524751    -0.07390
C606        C  0.47102851  0.02299442  0.16510327     0.13470
C607        C  0.44167081  0.04568890  0.13061002    -0.24220
H608        H  0.45383874  0.95675148  0.14255160     0.14760
H609        H  0.54583054  0.04572335  0.24865780     0.14790
C610        C  0.55797143  0.95706637  0.26169421    -0.24170
H611        H  0.42452024  0.02098351  0.10866386     0.05000
H612        H  0.46230517  0.06785017  0.10908021     0.08230
H613        H  0.41558794  0.06604029  0.14747550     0.08230
H614        H  0.58577581  0.93875461  0.24528756     0.08210
H615        H  0.53800670  0.93344271  0.28227971     0.08210
H616        H  0.57321536  0.98212840  0.28462804     0.04990
C617        C  0.49272208  0.77346363  0.98250102    -0.20820
C618        C  0.50570078  0.81216689  0.95921756    -0.07380
C619        C  0.51779550  0.85113068  0.98325116     0.13490
C620        C  0.51701609  0.85033729  0.03021596    -0.20870
C621        C  0.50383092  0.81175261  0.05353608    -0.07390
C622        C  0.49193082  0.77269438  0.02954749     0.13470
C623        C  0.47982019  0.72990547  0.05351861    -0.24220
H624        H  0.48361416  0.74367763  0.96378185     0.14760
H625        H  0.52595344  0.88021793  0.04888219     0.14790
C626        C  0.52994436  0.89400641  0.95939347    -0.24170
H627        H  0.47307311  0.70214797  0.02964852     0.05000
H628        H  0.44927225  0.73510443  0.07387490     0.08230
H629        H  0.50786879  0.71944301  0.07578452     0.08230
H630        H  0.50185985  0.90467361  0.93727068     0.08210
H631        H  0.56039367  0.88877587  0.93890051     0.08210
H632        H  0.53689521  0.92166396  0.98332360     0.04990
C633        C  0.66166110  0.82334042  0.31390507    -0.20820
C634        C  0.61719829  0.81472570  0.32666603    -0.07380
C635        C  0.60745566  0.81167457  0.37301522     0.13490
C636        C  0.64230622  0.81400225  0.40454559    -0.20870
C637        C  0.68700101  0.81900181  0.39146907    -0.07390
C638        C  0.69665927  0.82518343  0.34543647     0.14120
C639        C  0.74386454  0.83084915  0.32864107    -0.24220
H640        H  0.66969556  0.82622940  0.27865738     0.14760
H641        H  0.63473473  0.81011608  0.43983097     0.14790
C642        C  0.56059094  0.80669626  0.39001648    -0.24170
H643        H  0.74502551  0.83388633  0.29157487     0.05000
H644        H  0.76447713  0.80129689  0.33830566     0.08230
H645        H  0.75869696  0.86186083  0.34286495     0.08230
H646        H  0.54664408  0.77376461  0.37994886     0.08210
H647        H  0.54033424  0.83464842  0.37630832     0.08210
H648        H  0.55895665  0.80848230  0.42714194     0.04990
C649        C  0.36731080  0.81536608  0.40082023    -0.20820
C650        C  0.32207243  0.81710979  0.38796517    -0.07380
C651        C  0.31135824  0.82249755  0.34175918     0.13490
C652        C  0.34596112  0.82263577  0.31009718    -0.20870
C653        C  0.39080943  0.81686981  0.32291766    -0.07390
C654        C  0.40161806  0.81509889  0.36901531     0.13470
C655        C  0.44924523  0.81414677  0.38502538    -0.24220
H656        H  0.37597323  0.81270667  0.43603546     0.14760
H657        H  0.33764914  0.82445092  0.27474655     0.14790
C658        C  0.26380165  0.82563886  0.32470683    -0.24170
H659        H  0.45179017  0.81601161  0.42211429     0.05000
H660        H  0.46664152  0.84369121  0.37084073     0.08230
H661        H  0.46577456  0.78262580  0.37443229     0.08230
H662        H  0.24714482  0.85564143  0.33908232     0.08210
H663        H  0.24510797  0.79479835  0.33376522     0.08210
H664        H  0.26226845  0.82902197  0.28767164     0.04990
C665        C  0.85636191  0.49180020  0.03118306    -0.20820
C666        C  0.81656052  0.50189650  0.05370078    -0.07380
C667        C  0.77738910  0.51187020  0.02889727     0.13490
C668        C  0.77908343  0.51191099  0.98181088    -0.20870
C669        C  0.81893406  0.50163538  0.95928402    -0.07390
C670        C  0.85803544  0.49164614  0.98421166     0.13470
C671        C  0.90171455  0.48164058  0.96127174    -0.24220
H672        H  0.88631504  0.48437768  0.05048574     0.14760
H673        H  0.74913536  0.51929498  0.96250074     0.14790
C674        C  0.73369085  0.52124401  0.05211863    -0.24170
H675        H  0.92933847  0.47615151  0.98572036     0.05000
H676        H  0.91106548  0.51014223  0.93923368     0.08230
H677        H  0.89821184  0.45078895  0.94088922     0.08230
H678        H  0.73698269  0.55142927  0.07360537     0.08210
H679        H  0.72439416  0.49205450  0.07327299     0.08210
H680        H  0.70610748  0.52734020  0.02776502     0.04990
C681        C  0.84189563  0.32342283  0.36450616    -0.20820
C682        C  0.80912907  0.32543282  0.39819021    -0.07380
C683        C  0.77950981  0.36281943  0.39869944     0.13490
C684        C  0.78203678  0.39509408  0.36469919    -0.20870
C685        C  0.81239644  0.39146167  0.32903951    -0.07390
C686        C  0.84402539  0.35577560  0.33001772     0.13470
C687        C  0.88000079  0.35100398  0.29508956    -0.24220
H688        H  0.86525117  0.29554579  0.36435891     0.14760
H689        H  0.75807436  0.42241536  0.36500371     0.14790
C690        C  0.74310495  0.36844773  0.43323355    -0.24170
H691        H  0.90349974  0.32318295  0.30319294     0.05000
H692        H  0.89982493  0.38242350  0.29313099     0.08230
H693        H  0.86480918  0.34341070  0.26198784     0.08230
H694        H  0.75818278  0.37195665  0.46709586     0.08210
H695        H  0.72009479  0.33924672  0.43222786     0.08210
H696        H  0.72248630  0.39894015  0.42717443     0.04990
C697        C  0.70063684  0.33820012  0.19752898    -0.20820
C698        C  0.68802022  0.38244375  0.18798169    -0.07380
C699        C  0.64240745  0.39236614  0.17958194     0.13490
C700        C  0.61030256  0.35804728  0.18279464    -0.20870
C701        C  0.62271232  0.31413999  0.19468125    -0.07390
C702        C  0.66868406  0.30412511  0.20180564     0.13470
C703        C  0.68424570  0.25858703  0.21755375    -0.24220
H704        H  0.73548439  0.33089528  0.20492047     0.14760
H705        H  0.57524313  0.36575900  0.17716049     0.14790
C706        C  0.62749454  0.43909228  0.16758000    -0.24170
H707        H  0.72076101  0.25790886  0.22474161     0.05000
H708        H  0.67758707  0.23303248  0.19140514     0.08230
H709        H  0.66659425  0.24954768  0.24893603     0.08230
H710        H  0.64613190  0.45103481  0.13777033     0.08210
H711        H  0.63381855  0.46183266  0.19619089     0.08210
H712        H  0.59114071  0.44052713  0.15970442     0.04990
C713        C  0.69463785  0.65833375  0.18164753    -0.20820
C714        C  0.68105192  0.61343741  0.18672454    -0.07380
C715        C  0.63455498  0.60395640  0.18863995     0.13490
C716        C  0.60366155  0.63956152  0.18919551    -0.20870
C717        C  0.61775889  0.68437030  0.18762317    -0.07390
C718        C  0.66381729  0.69384508  0.18243369     0.13470
C719        C  0.68128122  0.74130103  0.18098294    -0.24220
H720        H  0.72999563  0.66615220  0.17990269     0.14760
H721        H  0.56823896  0.63244478  0.19248568     0.14790
C722        C  0.61685951  0.55675019  0.19009470    -0.24170
H723        H  0.71838862  0.74231040  0.17901702     0.05000
H724        H  0.67120627  0.75956159  0.21175070     0.08230
H725        H  0.66785142  0.75887289  0.15099100     0.08230
H726        H  0.62593815  0.54052575  0.22232903     0.08210
H727        H  0.63072278  0.53743859  0.16157042     0.08210
H728        H  0.57977364  0.55588073  0.18728619     0.04990
C729        C  0.84501630  0.63287098  0.33843077    -0.20820
C730        C  0.80349612  0.61606526  0.32363000    -0.07380
C731        C  0.76355518  0.63320831  0.34272315     0.13490
C732        C  0.76626993  0.66473605  0.37712065    -0.20870
C733        C  0.80743560  0.68115948  0.39236493    -0.07390
C734        C  0.84742361  0.66554173  0.37258453     0.13470
C735        C  0.89234196  0.68242192  0.38810640    -0.24220
H736        H  0.87552226  0.62030654  0.32340710     0.14760
H737        H  0.73561624  0.67792429  0.39140735     0.14790
C738        C  0.71754912  0.62057137  0.32559441    -0.24170
H739        H  0.92019187  0.66554916  0.37020396     0.05000
H740        H  0.89648073  0.67586432  0.42451638     0.08230
H741        H  0.89496753  0.71901006  0.38176408     0.08230
H742        H  0.71042077  0.58484056  0.33302145     0.08210
H743        H  0.71538156  0.62669153  0.28894384     0.08210
H744        H  0.69072274  0.64068899  0.34166265     0.04990
C745        C  0.97971083  0.46636577  0.21546497    -0.20820
C746        C  0.95676508  0.50411953  0.19857389    -0.07380
C747        C  0.98228320  0.54107759  0.18279147     0.13490
C748        C  0.02924205  0.53880169  0.18399981    -0.20870
C749        C  0.05204843  0.50069446  0.19990822    -0.07390
C750        C  0.02673238  0.46402836  0.21628545     0.13470
C751        C  0.04863329  0.42256633  0.23557797    -0.24220
H752        H  0.96069790  0.43813372  0.22803222     0.14760
H753        H  0.04841059  0.56684589  0.17123488     0.14790
C754        C  0.96096912  0.58273522  0.16322051    -0.24170
H755        H  0.02364519  0.39894333  0.24964651     0.05000
H756        H  0.07195871  0.43205713  0.26302680     0.08230
H757        H  0.06706899  0.40427963  0.20906729     0.08230
H758        H  0.94103516  0.60025474  0.18917334     0.08210
H759        H  0.93930515  0.57363122  0.13431716     0.08210
H760        H  0.98632320  0.60695455  0.15092058     0.04990
C761        C  0.18477191  0.53921466  0.03032865    -0.20820
C762        C  0.19180704  0.49809262  0.05262185    -0.07380
C763        C  0.19985168  0.45919657  0.02628196     0.13490
C764        C  0.19964007  0.46266957  0.97931532    -0.20870
C765        C  0.19191106  0.50365601  0.95713410    -0.07390
C766        C  0.18478203  0.54267268  0.98338709     0.13470
C767        C  0.17613148  0.58817989  0.96280731    -0.24220
H768        H  0.17882855  0.56929095  0.04976887     0.14760
H769        H  0.20571238  0.43274179  0.95966206     0.14790
C770        C  0.20893290  0.41364617  0.04662194    -0.24170
H771        H  0.16955618  0.61419565  0.98857483     0.05000
H772        H  0.14630326  0.58670897  0.94053343     0.08230
H773        H  0.20587004  0.59924011  0.94360704     0.08230
H774        H  0.17947530  0.40237980  0.06612929     0.08210
H775        H  0.23906771  0.41512283  0.06848744     0.08210
H776        H  0.21534732  0.38773765  0.02070547     0.04990
C777        C  0.37120263  0.39960786  0.19554481    -0.20820
C778        C  0.32646360  0.38702262  0.18726850    -0.07380
C779        C  0.31744157  0.34154148  0.17604317     0.13490
C780        C  0.35245321  0.31009347  0.17696613    -0.20870
C781        C  0.39607442  0.32207631  0.18970668    -0.07390
C782        C  0.40598451  0.36782325  0.19724204     0.13470
C783        C  0.45299641  0.38356282  0.20700457    -0.24220
H784        H  0.37889772  0.43436026  0.20283176     0.14760
H785        H  0.34496550  0.27510042  0.17056043     0.14790
C786        C  0.27102131  0.32464576  0.16526082    -0.24170
H787        H  0.45503703  0.42075048  0.20818274     0.05000
H788        H  0.47592979  0.37168354  0.18033980     0.08230
H789        H  0.46454832  0.37078813  0.23999239     0.08230
H790        H  0.25726217  0.34292284  0.13581518     0.08210
H791        H  0.24883388  0.32905166  0.19466682     0.08210
H792        H  0.27097403  0.28835076  0.15684942     0.04990
C793        C  0.16322326  0.37167630  0.34272166    -0.20820
C794        C  0.20426731  0.38347853  0.32310642    -0.07380
C795        C  0.24393013  0.36119100  0.33695109     0.13490
C796        C  0.24194615  0.32963608  0.37138767    -0.20870
C797        C  0.20142974  0.31845778  0.39192527    -0.07390
C798        C  0.16132343  0.33912890  0.37708985     0.13470
C799        C  0.11703296  0.32792762  0.39813047    -0.24220
H800        H  0.13284550  0.38827419  0.33152992     0.14760
H801        H  0.27242070  0.31259358  0.38173800     0.14790
C802        C  0.28840089  0.36866043  0.31418422    -0.24170
H803        H  0.08941029  0.34844028  0.38370048     0.05000
H804        H  0.11861273  0.33446430  0.43471390     0.08230
H805        H  0.10891345  0.29208282  0.39234817     0.08230
H806        H  0.30038380  0.40334754  0.32006558     0.08210
H807        H  0.28486742  0.36248301  0.27768764     0.08210
H808        H  0.31472838  0.34556929  0.32707706     0.04990
C809        C  0.36800961  0.60194870  0.18910980    -0.20820
C810        C  0.32288432  0.61539451  0.18704704    -0.07380
C811        C  0.31263519  0.66167563  0.18441218     0.13490
C812        C  0.34747169  0.69305920  0.18608862    -0.20870
C813        C  0.39248146  0.67987055  0.19133445    -0.07390
C814        C  0.40296425  0.63346217  0.19124228     0.13470
C815        C  0.45058632  0.61664453  0.19343076    -0.24220
H816        H  0.37585645  0.56645656  0.19087067     0.14760
H817        H  0.33902102  0.72843916  0.18594992     0.14790
C818        C  0.26499623  0.67862915  0.18318548    -0.24170
H819        H  0.45241326  0.57964462  0.18937403     0.05000
H820        H  0.46580588  0.62478018  0.22637801     0.08230
H821        H  0.47047674  0.63212479  0.16616628     0.08230
H822        H  0.24670203  0.66658963  0.21317703     0.08210
H823        H  0.24798391  0.66664780  0.15233290     0.08210
H824        H  0.26333002  0.71586360  0.18306223     0.04990
C825        C  0.16261109  0.62999152  0.33942803    -0.20820
C826        C  0.20389153  0.61229663  0.32536475    -0.07380
C827        C  0.24400606  0.62938622  0.34386374     0.13490
C828        C  0.24190996  0.66232184  0.37690217    -0.20870
C829        C  0.20095656  0.67986862  0.39176903    -0.07390
C830        C  0.16062946  0.66374409  0.37257022     0.13470
C831        C  0.11574576  0.68114718  0.38741460    -0.24220
H832        H  0.13199895  0.61735201  0.32451448     0.14760
H833        H  0.27297264  0.67554449  0.39034623     0.14790
C834        C  0.28951625  0.61492537  0.32724474    -0.24170
H835        H  0.08782066  0.66327679  0.37047700     0.05000
H836        H  0.11257882  0.71732299  0.37916302     0.08230
H837        H  0.11212446  0.67634477  0.42410921     0.08230
H838        H  0.29181412  0.62099418  0.29063095     0.08210
H839        H  0.29521909  0.57886414  0.33452300     0.08210
H840        H  0.31702965  0.63391147  0.34362788     0.04990
loop_ 
_geom_bond_atom_site_label_1 
_geom_bond_atom_site_label_2 
_geom_bond_distance 
_geom_bond_site_symmetry_2 
_ccdc_geom_bond_type 
Fe1          O17   2.067       .  S
Fe1           O7   2.079       .  S
Fe1          O14   2.072       .  S
Fe1           O6   2.070       .  S
Fe1          O12   1.976       .  S
Fe2           O5   2.074       .  S
Fe2           O9   2.066       .  S
Fe2          O13   2.063       .  S
Fe2          O18   2.069       .  S
Fe2          O12   1.976       .  S
Fe3          O21   2.051       .  S
Fe3           O8   2.059       .  S
Fe3          O15   2.055       .  S
Fe3           O4   2.055       .  S
Fe3          O12   1.964       .  S
O4           C11   1.266       .  A
O5           C19   1.269       .  A
O6           C11   1.269       .  A
O7           C10   1.271       .  A
O8           C20   1.269       .  A
O9           C22   1.267       .  A
C10          O15   1.269       .  A
C10         C826   1.477       .  S
C11         C810   1.483       .  S
O13          C16   1.268       .  A
O14          C16   1.272       .  A
C16         C762   1.500       .  S
O17          C22   1.270       .  A
O18          C20   1.268       .  A
C19          O21   1.266       .  A
C19         C794   1.478       .  S
C20         C778   1.495       .  S
C22         C749   1.491       .  S
Fe23         O39   2.068       .  S
Fe23         O29   2.078       .  S
Fe23         O36   2.074       .  S
Fe23         O28   2.075       .  S
Fe23         O34   1.983       .  S
Fe24         O27   2.079       .  S
Fe24         O31   2.063       .  S
Fe24         O35   2.067       .  S
Fe24         O40   2.065       .  S
Fe24         O34   1.979       .  S
Fe25         O43   2.049       .  S
Fe25         O30   2.061       .  S
Fe25         O37   2.058       .  S
Fe25         O26   2.052       .  S
Fe25         O34   1.964       .  S
O26          C33   1.264       .  A
O27          C41   1.271       .  A
O28          C33   1.270       .  A
O29          C32   1.271       .  A
O30          C42   1.267       .  A
O31          C44   1.266       .  A
C32          O37   1.271       .  A
C32         C685   1.499       .  S
C33         C698   1.478       .  S
O35          C38   1.270       .  A
O36          C38   1.271       .  A
C38         C666   1.473       .  S
O39          C44   1.270       .  A
O40          C42   1.269       .  A
C41          O43   1.266       .  A
C41         C730   1.483       .  S
C42         C714   1.491       .  S
C44         C746   1.496       .  S
Fe45         O61   2.060       .  S
Fe45         O51   2.058       .  S
Fe45         O58   2.067       .  S
Fe45         O50   2.065       .  S
Fe45         O56   1.969       .  S
Fe46         O49   2.058       .  S
Fe46         O53   2.071       .  S
Fe46         O57   2.053       .  S
Fe46         O62   2.066       .  S
Fe46         O56   1.972       .  S
Fe47         O65   2.070       .  S
Fe47         O52   2.070       .  S
Fe47         O59   2.070       .  S
Fe47         O48   2.072       .  S
Fe47         O56   1.966       .  S
O48          C55   1.271       .  A
O49          C63   1.268       .  A
O50          C55   1.271       .  A
O51          C54   1.268       .  A
O52          C64   1.269       .  A
O53          C66   1.268       .  A
C54          O59   1.269       .  A
C54         C813   1.490       .  S
C55         C653   1.484       .  S
O57          C60   1.266       .  A
O58          C60   1.269       .  A
C60         C602   1.478       .  S
O61          C66   1.267       .  A
O62          C64   1.269       .  A
C63          O65   1.271       .  A
C63         C717   1.479       .  S
C64         C634   1.495       .  S
C66         C621   1.473       .  S
Fe67         O83   2.056       .  S
Fe67         O73   2.054       .  S
Fe67         O80   2.056       .  S
Fe67         O72   2.058       .  S
Fe67         O78   1.964       .  S
Fe68         O71   2.059       .  S
Fe68         O75   2.060       .  S
Fe68         O79   2.060       .  S
Fe68         O84   2.062       .  S
Fe68         O78   1.963       .  S
Fe69         O87   2.077       .  S
Fe69         O74   2.075       .  S
Fe69         O81   2.084       .  S
Fe69         O70   2.073       .  S
Fe69         O78   1.964       .  S
O70          C77   1.270       .  A
O71          C85   1.266       .  A
O72          C77   1.269       .  A
O73          C76   1.266       .  A
O74          C86   1.271       .  A
O75          C88   1.267       .  A
C76          O81   1.273       .  A
C76         C573   1.488       .  S
C77         C781   1.484       .  S
O79          C82   1.270       .  A
O80          C82   1.265       .  A
C82         C554   1.487       .  S
O83          C88   1.267       .  A
O84          C86   1.267       .  A
C85          O87   1.274       .  A
C85         C589   1.486       .  S
C86         C701   1.485       .  S
C88         C605   1.467       .  S
Fe89        O105   2.058       .  S
Fe89         O95   2.045       .  S
Fe89        O102   2.043       .  S
Fe89         O94   2.064       .  S
Fe89        O100   1.969       .  S
Fe90         O93   2.067       .  S
Fe90         O97   2.066       .  S
Fe90        O101   2.068       .  S
Fe90        O106   2.062       .  S
Fe90        O100   1.975       .  S
Fe91        O109   2.068       .  S
Fe91         O96   2.074       .  S
Fe91        O103   2.075       .  S
Fe91         O92   2.070       .  S
Fe91        O100   1.968       .  S
O92          C99   1.270       .  A
O93         C107   1.271       .  A
O94          C99   1.270       .  A
O95          C98   1.263       .  A
O96         C108   1.271       .  A
O97         C110   1.270       .  A
C98         O103   1.271       .  A
C98         C541   1.483       .  S
C99         C522   1.491       .  S
O101        C104   1.270       .  A
O102        C104   1.262       .  A
C104        C557   1.492       .  S
O105        C110   1.267       .  A
O106        C108   1.269       .  A
C107        O109   1.269       .  A
C107        C509   1.487       .  S
C108        C493   1.489       .  S
C110        C474   1.494       .  S
Fe111       O127   2.069       .  S
Fe111       O117   2.072       .  S
Fe111       O124   2.065       .  S
Fe111       O116   2.083       .  S
Fe111       O122   1.966       .  S
Fe112       O115   2.092       .  S
Fe112       O119   2.071       .  S
Fe112       O123   2.083       .  S
Fe112       O128   2.069       .  S
Fe112       O122   1.970       .  S
Fe113       O131   2.052       .  S
Fe113       O118   2.065       .  S
Fe113       O125   2.066       .  S
Fe113       O114   2.055       .  S
Fe113       O122   1.957       .  S
O114        C121   1.267       .  A
O115        C129   1.275       .  A
O116        C121   1.274       .  A
O117        C120   1.269       .  A
O118        C130   1.267       .  A
O119        C132   1.269       .  A
C120        O125   1.268       .  A
C120        C458   1.473       .  S
C121        C538   1.490       .  S
O123        C126   1.273       .  A
O124        C126   1.271       .  A
C126        C429   1.485       .  S
O127        C132   1.270       .  A
O128        C130   1.269       .  A
C129        O131   1.267       .  A
C129        C682   1.496       .  S
C130        C586   1.489       .  S
C132        C445   1.490       .  S
Fe133       O149   2.073       .  S
Fe133       O139   2.068       .  S
Fe133       O146   2.067       .  S
Fe133       O138   2.080       .  S
Fe133       O144   1.973       .  S
Fe134       O137   2.078       .  S
Fe134       O141   2.065       .  S
Fe134       O145   2.068       .  S
Fe134       O150   2.070       .  S
Fe134       O144   1.973       .  S
Fe135       O153   2.056       .  S
Fe135       O140   2.058       .  S
Fe135       O147   2.062       .  S
Fe135       O136   2.056       .  S
Fe135       O144   1.963       .  S
O136        C143   1.265       .  A
O137        C151   1.271       .  A
O138        C143   1.272       .  A
O139        C142   1.269       .  A
O140        C152   1.267       .  A
O141        C154   1.269       .  A
C142        O147   1.270       .  A
C142        C797   1.477       .  S
C143        C570   1.487       .  S
O145        C148   1.269       .  A
O146        C148   1.272       .  A
C148        C394   1.493       .  S
O149        C154   1.269       .  A
O150        C152   1.269       .  A
C151        O153   1.269       .  A
C151        C413   1.472       .  S
C152        C506   1.488       .  S
C154        C442   1.481       .  S
Fe155       O171   2.054       .  S
Fe155       O161   2.074       .  S
Fe155       O168   2.076       .  S
Fe155       O160   2.063       .  S
Fe155       O166   1.971       .  S
Fe156       O159   2.076       .  S
Fe156       O163   2.065       .  S
Fe156       O167   2.064       .  S
Fe156       O172   2.065       .  S
Fe156       O166   1.969       .  S
Fe157       O175   2.055       .  S
Fe157       O162   2.062       .  S
Fe157       O169   2.058       .  S
Fe157       O158   2.054       .  S
Fe157       O166   1.963       .  S
O158        C165   1.266       .  A
O159        C173   1.270       .  A
O160        C165   1.267       .  A
O161        C164   1.271       .  A
O162        C174   1.269       .  A
O163        C176   1.267       .  A
C164        O169   1.270       .  A
C164        C410   1.469       .  S
C165        C490   1.476       .  S
O167        C170   1.270       .  A
O168        C170   1.273       .  A
C170        C765   1.497       .  S
O171        C176   1.267       .  A
O172        C174   1.268       .  A
C173        O175   1.268       .  A
C173        C381   1.480       .  S
C174        C362   1.490       .  S
C176        C346   1.483       .  S
Fe177       O193   2.064       .  S
Fe177       O183   2.058       .  S
Fe177       O190   2.051       .  S
Fe177       O182   2.075       .  S
Fe177       O188   1.976       .  S
Fe178       O181   2.072       .  S
Fe178       O185   2.067       .  S
Fe178       O189   2.065       .  S
Fe178       O194   2.070       .  S
Fe178       O188   1.978       .  S
Fe179       O197   2.055       .  S
Fe179       O184   2.059       .  S
Fe179       O191   2.061       .  S
Fe179       O180   2.052       .  S
Fe179       O188   1.963       .  S
O180        C187   1.268       .  A
O181        C195   1.270       .  A
O182        C187   1.269       .  A
O183        C186   1.266       .  A
O184        C196   1.270       .  A
O185        C198   1.271       .  A
C186        O191   1.270       .  A
C186        C650   1.489       .  S
C187        C829   1.484       .  S
O189        C192   1.267       .  A
O190        C192   1.267       .  A
C192        C314   1.491       .  S
O193        C198   1.268       .  A
O194        C196   1.270       .  A
C195        O197   1.265       .  A
C195        C330   1.487       .  S
C196        C378   1.470       .  S
C198        C397   1.496       .  S
Fe199       O215   2.052       .  S
Fe199       O205   2.074       .  S
Fe199       O212   2.073       .  S
Fe199       O204   2.060       .  S
Fe199       O210   1.978       .  S
Fe200       O203   2.077       .  S
Fe200       O207   2.062       .  S
Fe200       O211   2.071       .  S
Fe200       O216   2.066       .  S
Fe200       O210   1.978       .  S
Fe201       O219   2.061       .  S
Fe201       O206   2.063       .  S
Fe201       O213   2.056       .  S
Fe201       O202   2.058       .  S
Fe201       O210   1.969       .  S
O202        C209   1.268       .  A
O203        C217   1.272       .  A
O204        C209   1.266       .  A
O205        C208   1.270       .  A
O206        C218   1.269       .  A
O207        C220   1.267       .  A
C208        O213   1.269       .  A
C208        C733   1.477       .  S
C209        C637   1.484       .  S
O211        C214   1.271       .  A
O212        C214   1.271       .  A
C214        C426   1.487       .  S
O215        C220   1.265       .  A
O216        C218   1.268       .  A
C217        O219   1.267       .  A
C217        C282   1.498       .  S
C218        C301   1.491       .  S
C220        C317   1.487       .  S
Fe221       O237   2.067       .  S
Fe221       O227   2.062       .  S
Fe221       O234   2.060       .  S
Fe221       O226   2.059       .  S
Fe221       O232   1.971       .  S
Fe222       O225   2.064       .  S
Fe222       O229   2.058       .  S
Fe222       O233   2.069       .  S
Fe222       O238   2.065       .  S
Fe222       O232   1.971       .  S
Fe223       O241   2.065       .  S
Fe223       O228   2.072       .  S
Fe223       O235   2.074       .  S
Fe223       O224   2.066       .  S
Fe223       O232   1.972       .  S
O224        C231   1.268       .  A
O225        C239   1.269       .  A
O226        C231   1.269       .  A
O227        C230   1.268       .  A
O228        C240   1.271       .  A
O229        C242   1.269       .  A
C230        O235   1.271       .  A
C230        C333   1.488       .  S
C231        C365   1.485       .  S
O233        C236   1.268       .  A
O234        C236   1.266       .  A
C236        C618   1.472       .  S
O237        C242   1.268       .  A
O238        C240   1.270       .  A
C239        O241   1.268       .  A
C239        C298   1.489       .  S
C240        C266   1.487       .  S
C242        C477   1.493       .  S
Fe243       O259   2.074       .  S
Fe243       O249   2.072       .  S
Fe243       O256   2.067       .  S
Fe243       O248   2.071       .  S
Fe243       O254   1.971       .  S
Fe244       O247   2.076       .  S
Fe244       O251   2.052       .  S
Fe244       O255   2.071       .  S
Fe244       O260   2.058       .  S
Fe244       O254   1.975       .  S
Fe245       O263   2.066       .  S
Fe245       O250   2.067       .  S
Fe245       O257   2.068       .  S
Fe245       O246   2.064       .  S
Fe245       O254   1.964       .  S
O246        C253   1.268       .  A
O247        C261   1.269       .  A
O248        C253   1.271       .  A
O249        C252   1.269       .  A
O250        C262   1.272       .  A
O251        C264   1.267       .  A
C252        O257   1.271       .  A
C252        C285   1.500       .  S
C253        C269   1.495       .  S
O255        C258   1.268       .  A
O256        C258   1.267       .  A
C258        C669   1.476       .  S
O259        C264   1.272       .  A
O260        C262   1.267       .  A
C261        O263   1.268       .  A
C261        C461   1.475       .  S
C262        C525   1.486       .  S
C264        C349   1.483       .  S
C265        C266   1.405       .  A
C265        C270   1.407       .  A
C265        H272   1.084       .  S
C266        C267   1.416       .  A
C267        C268   1.403       .  A
C267        C274   1.509       .  S
C268        C269   1.408       .  A
C268        H273   1.083       .  S
C269        C270   1.421       .  A
C270        C271   1.509       .  S
C271        H275   1.111       .  S
C271        H276   1.110       .  S
C271        H277   1.109       .  S
C274        H278   1.110       .  S
C274        H279   1.110       .  S
C274        H280   1.111       .  S
C281        C282   1.407       .  A
C281        C286   1.408       .  A
C281        H288   1.083       .  S
C282        C283   1.421       .  A
C283        C284   1.404       .  A
C283        C290   1.510       .  S
C284        C285   1.407       .  A
C284        H289   1.084       .  S
C285        C286   1.421       .  A
C286        C287   1.508       .  S
C287        H291   1.111       .  S
C287        H292   1.110       .  S
C287        H293   1.110       .  S
C290        H294   1.111       .  S
C290        H295   1.109       .  S
C290        H296   1.111       .  S
C297        C298   1.404       .  A
C297        C302   1.401       .  A
C297        H304   1.084       .  S
C298        C299   1.417       .  A
C299        C300   1.408       .  A
C299        C306   1.508       .  S
C300        C301   1.408       .  A
C300        H305   1.084       .  S
C301        C302   1.420       .  A
C302        C303   1.510       .  S
C303        H307   1.111       .  S
C303        H308   1.110       .  S
C303        H309   1.111       .  S
C306        H310   1.111       .  S
C306        H311   1.109       .  S
C306        H312   1.111       .  S
C313        C314   1.407       .  A
C313        C318   1.399   1_455  A
C313        H320   1.084       .  S
C314        C315   1.419       .  A
C315        C316   1.405   1_455  A
C315        C322   1.508       .  S
C316        C317   1.406       .  A
C316        H321   1.084       .  S
C317        C318   1.417       .  A
C318        C319   1.510       .  S
C319        H323   1.111       .  S
C319        H324   1.110       .  S
C319        H325   1.110       .  S
C322        H326   1.110       .  S
C322        H327   1.110       .  S
C322        H328   1.111       .  S
C329        C330   1.404       .  A
C329        C334   1.404       .  A
C329        H336   1.084       .  S
C330        C331   1.418       .  A
C331        C332   1.406       .  A
C331        C338   1.509       .  S
C332        C333   1.405       .  A
C332        H337   1.084       .  S
C333        C334   1.418       .  A
C334        C335   1.509       .  S
C335        H339   1.111       .  S
C335        H340   1.110       .  S
C335        H341   1.111       .  S
C338        H342   1.110       .  S
C338        H343   1.109       .  S
C338        H344   1.111       .  S
C345        C346   1.403       .  A
C345        C350   1.401   1_455  A
C345        H352   1.084       .  S
C346        C347   1.416       .  A
C347        C348   1.403   1_455  A
C347        C354   1.505       .  S
C348        C349   1.404       .  A
C348        H353   1.084       .  S
C349        C350   1.418       .  A
C350        C351   1.508       .  S
C351        H355   1.110       .  S
C351        H356   1.109       .  S
C351        H357   1.108       .  S
C354        H358   1.109       .  S
C354        H359   1.109       .  S
C354        H360   1.111       .  S
C361        C362   1.408       .  A
C361        C366   1.408       .  A
C361        H368   1.084       .  S
C362        C363   1.421       .  A
C363        C364   1.399       .  A
C363        C370   1.511       .  S
C364        C365   1.403       .  A
C364        H369   1.084       .  S
C365        C366   1.415       .  A
C366        C367   1.508       .  S
C367        H371   1.111       .  S
C367        H372   1.110       .  S
C367        H373   1.109       .  S
C370        H374   1.110       .  S
C370        H375   1.111       .  S
C370        H376   1.111       .  S
C377        C378   1.403       .  A
C377        C382   1.410       .  A
C377        H384   1.084       .  S
C378        C379   1.411       .  A
C379        C380   1.395       .  A
C379        C386   1.510       .  S
C380        C381   1.403       .  A
C380        H385   1.084       .  S
C381        C382   1.415       .  A
C382        C383   1.502       .  S
C383        H387   1.110       .  S
C383        H388   1.108       .  S
C383        H389   1.111       .  S
C386        H390   1.110       .  S
C386        H391   1.109       .  S
C386        H392   1.110       .  S
C393        C394   1.406       .  A
C393        C398   1.405   1_545  A
C393        H400   1.083       .  S
C394        C395   1.420       .  A
C395        C396   1.404   1_545  A
C395        C402   1.510       .  S
C396        C397   1.407       .  A
C396        H401   1.083       .  S
C397        C398   1.421       .  A
C398        C399   1.509       .  S
C399        H403   1.111       .  S
C399        H404   1.110       .  S
C399        H405   1.110       .  S
C402        H406   1.110       .  S
C402        H407   1.110       .  S
C402        H408   1.111       .  S
C409        C410   1.398       .  A
C409        C414   1.395       .  A
C409        H416   1.085       .  S
C410        C411   1.412       .  A
C411        C412   1.411       .  A
C411        C418   1.504       .  S
C412        C413   1.405       .  A
C412        H417   1.083       .  S
C413        C414   1.413       .  A
C414        C415   1.510       .  S
C415        H419   1.111       .  S
C415        H420   1.109       .  S
C415        H421   1.110       .  S
C418        H422   1.110       .  S
C418        H423   1.110       .  S
C418        H424   1.111       .  S
C425        C426   1.406       .  A
C425        C430   1.407   1_565  A
C425        H432   1.084       .  S
C426        C427   1.417       .  A
C427        C428   1.406   1_565  A
C427        C434   1.508       .  S
C428        C429   1.404       .  A
C428        H433   1.084       .  S
C429        C430   1.415       .  A
C430        C431   1.508       .  S
C431        H435   1.111       .  S
C431        H436   1.109       .  S
C431        H437   1.111       .  S
C434        H438   1.111       .  S
C434        H439   1.109       .  S
C434        H440   1.111       .  S
C441        C442   1.404       .  A
C441        C446   1.409   1_455  A
C441        H448   1.085       .  S
C442        C443   1.413       .  A
C443        C444   1.403   1_455  A
C443        C450   1.508       .  S
C444        C445   1.407       .  A
C444        H449   1.084       .  S
C445        C446   1.419       .  A
C446        C447   1.508       .  S
C447        H451   1.111       .  S
C447        H452   1.111       .  S
C447        H453   1.109       .  S
C450        H454   1.109       .  S
C450        H455   1.111       .  S
C450        H456   1.111       .  S
C457        C458   1.399       .  A
C457        C462   1.397       .  A
C457        H464   1.085       .  S
C458        C459   1.412       .  A
C459        C460   1.413       .  A
C459        C466   1.504       .  S
C460        C461   1.406       .  A
C460        H465   1.084       .  S
C461        C462   1.412       .  A
C462        C463   1.508       .  S
C463        H467   1.111       .  S
C463        H468   1.110       .  S
C463        H469   1.108       .  S
C466        H470   1.110       .  S
C466        H471   1.110       .  S
C466        H472   1.111       .  S
C473        C474   1.407       .  A
C473        C478   1.404   1_545  A
C473        H480   1.083       .  S
C474        C475   1.420       .  A
C475        C476   1.403   1_545  A
C475        C482   1.510       .  S
C476        C477   1.407       .  A
C476        H481   1.083       .  S
C477        C478   1.420       .  A
C478        C479   1.510       .  S
C479        H483   1.111       .  S
C479        H484   1.110       .  S
C479        H485   1.110       .  S
C482        H486   1.110       .  S
C482        H487   1.110       .  S
C482        H488   1.111       .  S
C489        C490   1.401       .  A
C489        C494   1.403       .  A
C489        H496   1.085       .  S
C490        C491   1.414       .  A
C491        C492   1.403       .  A
C491        C498   1.508       .  S
C492        C493   1.407       .  A
C492        H497   1.084       .  S
C493        C494   1.416       .  A
C494        C495   1.500       .  S
C495        H499   1.111       .  S
C495        H500   1.109       .  S
C495        H501   1.110       .  S
C498        H502   1.111       .  S
C498        H503   1.110       .  S
C498        H504   1.111       .  S
C505        C506   1.407       .  A
C505        C510   1.405       .  A
C505        H512   1.085       .  S
C506        C507   1.417       .  A
C507        C508   1.405       .  A
C507        C514   1.508       .  S
C508        C509   1.405       .  A
C508        H513   1.084       .  S
C509        C510   1.417       .  A
C510        C511   1.509       .  S
C511        H515   1.111       .  S
C511        H516   1.110       .  S
C511        H517   1.109       .  S
C514        H518   1.110       .  S
C514        H519   1.110       .  S
C514        H520   1.111       .  S
C521        C522   1.406       .  A
C521        C526   1.405       .  A
C521        H528   1.084       .  S
C522        C523   1.418       .  A
C523        C524   1.400       .  A
C523        C530   1.502       .  S
C524        C525   1.402       .  A
C524        H529   1.084       .  S
C525        C526   1.419       .  A
C526        C527   1.508       .  S
C527        H531   1.111       .  S
C527        H532   1.110       .  S
C527        H533   1.109       .  S
C530        H534   1.105       .  S
C530        H535   1.108       .  S
C530        H536   1.111       .  S
C537        C538   1.404       .  A
C537        C542   1.401       .  A
C537        H544   1.084       .  S
C538        C539   1.419       .  A
C539        C540   1.405       .  A
C539        C546   1.501       .  S
C540        C541   1.401       .  A
C540        H545   1.084       .  S
C541        C542   1.420       .  A
C542        C543   1.511       .  S
C543        H547   1.111       .  S
C543        H548   1.110       .  S
C543        H549   1.111       .  S
C546        H550   1.110       .  S
C546        H551   1.107       .  S
C546        H552   1.111       .  S
C553        C554   1.402       .  A
C553        C558   1.400   1_554  A
C553        H560   1.083       .  S
C554        C555   1.420       .  A
C555        C556   1.403   1_554  A
C555        C562   1.510       .  S
C556        C557   1.406       .  A
C556        H561   1.083       .  S
C557        C558   1.424       .  A
C558        C559   1.511       .  S
C559        H563   1.111       .  S
C559        H564   1.110       .  S
C559        H565   1.110       .  S
C562        H566   1.111       .  S
C562        H567   1.110       .  S
C562        H568   1.110       .  S
C569        C570   1.402       .  A
C569        C574   1.400       .  A
C569        H576   1.084       .  S
C570        C571   1.418       .  A
C571        C572   1.410       .  A
C571        C578   1.507       .  S
C572        C573   1.405       .  A
C572        H577   1.083       .  S
C573        C574   1.421       .  A
C574        C575   1.512       .  S
C575        H579   1.111       .  S
C575        H580   1.109       .  S
C575        H581   1.110       .  S
C578        H582   1.111       .  S
C578        H583   1.109       .  S
C578        H584   1.111       .  S
C585        C586   1.403       .  A
C585        C590   1.405       .  A
C585        H592   1.085       .  S
C586        C587   1.416       .  A
C587        C588   1.401       .  A
C587        C594   1.503       .  S
C588        C589   1.403       .  A
C588        H593   1.085       .  S
C589        C590   1.425       .  A
C590        C591   1.511       .  S
C591        H595   1.110       .  S
C591        H596   1.110       .  S
C591        H597   1.100       .  S
C594        H598   1.108       .  S
C594        H599   1.107       .  S
C594        H600   1.111       .  S
C601        C602   1.406       .  A
C601        C606   1.401   1_565  A
C601        H608   1.084       .  S
C602        C603   1.417       .  A
C603        C604   1.402   1_565  A
C603        C610   1.509       .  S
C604        C605   1.401       .  A
C604        H609   1.084       .  S
C605        C606   1.409       .  A
C606        C607   1.507       .  S
C607        H611   1.111       .  S
C607        H612   1.111       .  S
C607        H613   1.110       .  S
C610        H614   1.109       .  S
C610        H615   1.111       .  S
C610        H616   1.111       .  S
C617        C618   1.402       .  A
C617        C622   1.405   1_556  A
C617        H624   1.084       .  S
C618        C619   1.413       .  A
C619        C620   1.403   1_556  A
C619        C626   1.508       .  S
C620        C621   1.402       .  A
C620        H625   1.084       .  S
C621        C622   1.413       .  A
C622        C623   1.507       .  S
C623        H627   1.111       .  S
C623        H628   1.110       .  S
C623        H629   1.111       .  S
C626        H630   1.111       .  S
C626        H631   1.110       .  S
C626        H632   1.111       .  S
C633        C634   1.408       .  A
C633        C638   1.404       .  A
C633        H640   1.084       .  S
C634        C635   1.418       .  A
C635        C636   1.402       .  A
C635        C642   1.499       .  S
C636        C637   1.401       .  A
C636        H641   1.085       .  S
C637        C638   1.418       .  A
C638        C639   1.509       .  S
C639        H643   1.111       .  S
C639        H644   1.110       .  S
C639        H645   1.110       .  S
C642        H646   1.108       .  S
C642        H647   1.105       .  S
C642        H648   1.111       .  S
C649        C650   1.404       .  A
C649        C654   1.401       .  A
C649        H656   1.084       .  S
C650        C651   1.423       .  A
C651        C652   1.404       .  A
C651        C658   1.509       .  S
C652        C653   1.401       .  A
C652        H657   1.084       .  S
C653        C654   1.413       .  A
C654        C655   1.498       .  S
C655        H659   1.111       .  S
C655        H660   1.108       .  S
C655        H661   1.108       .  S
C658        H662   1.110       .  S
C658        H663   1.110       .  S
C658        H664   1.111       .  S
C665        C666   1.401       .  A
C665        C670   1.404   1_554  A
C665        H672   1.084       .  S
C666        C667   1.412       .  A
C667        C668   1.407   1_554  A
C667        C674   1.507       .  S
C668        C669   1.404       .  A
C668        H673   1.084       .  S
C669        C670   1.412       .  A
C670        C671   1.506       .  S
C671        H675   1.110       .  S
C671        H676   1.111       .  S
C671        H677   1.108       .  S
C674        H678   1.110       .  S
C674        H679   1.111       .  S
C674        H680   1.110       .  S
C681        C682   1.408       .  A
C681        C686   1.411       .  A
C681        H688   1.084       .  S
C682        C683   1.421       .  A
C683        C684   1.400       .  A
C683        C690   1.512       .  S
C684        C685   1.406       .  A
C684        H689   1.083       .  S
C685        C686   1.421       .  A
C686        C687   1.508       .  S
C687        H691   1.111       .  S
C687        H692   1.111       .  S
C687        H693   1.109       .  S
C690        H694   1.110       .  S
C690        H695   1.111       .  S
C690        H696   1.111       .  S
C697        C698   1.399       .  A
C697        C702   1.401       .  A
C697        H704   1.084       .  S
C698        C699   1.414       .  A
C699        C700   1.407       .  A
C699        C706   1.503       .  S
C700        C701   1.404       .  A
C700        H705   1.084       .  S
C701        C702   1.419       .  A
C702        C703   1.507       .  S
C703        H707   1.111       .  S
C703        H708   1.109       .  S
C703        H709   1.111       .  S
C706        H710   1.111       .  S
C706        H711   1.107       .  S
C706        H712   1.110       .  S
C713        C714   1.407       .  A
C713        C718   1.401       .  A
C713        H720   1.084       .  S
C714        C715   1.419       .  A
C715        C716   1.405       .  A
C715        C722   1.505       .  S
C716        C717   1.402       .  A
C716        H721   1.084       .  S
C717        C718   1.414       .  A
C718        C719   1.509       .  S
C719        H723   1.111       .  S
C719        H724   1.111       .  S
C719        H725   1.109       .  S
C722        H726   1.109       .  S
C722        H727   1.110       .  S
C722        H728   1.111       .  S
C729        C730   1.408       .  A
C729        C734   1.413       .  A
C729        H736   1.084       .  S
C730        C731   1.419       .  A
C731        C732   1.395       .  A
C731        C738   1.512       .  S
C732        C733   1.399       .  A
C732        H737   1.085       .  S
C733        C734   1.413       .  A
C734        C735   1.505       .  S
C735        H739   1.111       .  S
C735        H740   1.110       .  S
C735        H741   1.110       .  S
C738        H742   1.109       .  S
C738        H743   1.111       .  S
C738        H744   1.111       .  S
C745        C746   1.408       .  A
C745        C750   1.406   1_655  A
C745        H752   1.084       .  S
C746        C747   1.422       .  A
C747        C748   1.404   1_655  A
C747        C754   1.509       .  S
C748        C749   1.404       .  A
C748        H753   1.084       .  S
C749        C750   1.418       .  A
C750        C751   1.509       .  S
C751        H755   1.111       .  S
C751        H756   1.110       .  S
C751        H757   1.110       .  S
C754        H758   1.110       .  S
C754        H759   1.110       .  S
C754        H760   1.111       .  S
C761        C762   1.409       .  A
C761        C766   1.405   1_554  A
C761        H768   1.083       .  S
C762        C763   1.422       .  A
C763        C764   1.406   1_554  A
C763        C770   1.510       .  S
C764        C765   1.407       .  A
C764        H769   1.084       .  S
C765        C766   1.420       .  A
C766        C767   1.509       .  S
C767        H771   1.111       .  S
C767        H772   1.110       .  S
C767        H773   1.110       .  S
C770        H774   1.110       .  S
C770        H775   1.110       .  S
C770        H776   1.111       .  S
C777        C778   1.409       .  A
C777        C782   1.405       .  A
C777        H784   1.084       .  S
C778        C779   1.423       .  A
C779        C780   1.403       .  A
C779        C786   1.510       .  S
C780        C781   1.403       .  A
C780        H785   1.084       .  S
C781        C782   1.414       .  A
C782        C783   1.509       .  S
C783        H787   1.111       .  S
C783        H788   1.111       .  S
C783        H789   1.108       .  S
C786        H790   1.110       .  S
C786        H791   1.110       .  S
C786        H792   1.111       .  S
C793        C794   1.407       .  A
C793        C798   1.412       .  A
C793        H800   1.083       .  S
C794        C795   1.416       .  A
C795        C796   1.394       .  A
C795        C802   1.512       .  S
C796        C797   1.400       .  A
C796        H801   1.085       .  S
C797        C798   1.414       .  A
C798        C799   1.505       .  S
C799        H803   1.110       .  S
C799        H804   1.111       .  S
C799        H805   1.110       .  S
C802        H806   1.109       .  S
C802        H807   1.110       .  S
C802        H808   1.111       .  S
C809        C810   1.406       .  A
C809        C814   1.407       .  A
C809        H816   1.084       .  S
C810        C811   1.414       .  A
C811        C812   1.402       .  A
C811        C818   1.509       .  S
C812        C813   1.408       .  A
C812        H817   1.084       .  S
C813        C814   1.417       .  A
C814        C815   1.508       .  S
C815        H819   1.111       .  S
C815        H820   1.109       .  S
C815        H821   1.111       .  S
C818        H822   1.111       .  S
C818        H823   1.110       .  S
C818        H824   1.111       .  S
C825        C826   1.406       .  A
C825        C830   1.413       .  A
C825        H832   1.084       .  S
C826        C827   1.413       .  A
C827        C828   1.394       .  A
C827        C834   1.511       .  S
C828        C829   1.404       .  A
C828        H833   1.084       .  S
C829        C830   1.417       .  A
C830        C831   1.505       .  S
C831        H835   1.111       .  S
C831        H836   1.109       .  S
C831        H837   1.111       .  S
C834        H838   1.110       .  S
C834        H839   1.109       .  S
C834        H840   1.111       .  S
