geometry optimzed in LAMMPS
_audit_creation_date              2020-12-01 
_audit_creation_method            'lammps2cif' 
_symmetry_space_group_name_H-M    'P1' 
_symmetry_Int_Tables_number       1 
_symmetry_cell_setting            triclinic 
loop_ 
_symmetry_equiv_pos_as_xyz 
  x,y,z 
_cell_length_a                    41.52114113 
_cell_length_b                    44.69518610891452 
_cell_length_c                    40.84049377977111 
_cell_angle_alpha                 106.48671659614618 
_cell_angle_beta                  89.67994213056129 
_cell_angle_gamma                 89.86766341191743 
loop_ 
_atom_site_label 
_atom_site_type_symbol 
_atom_site_fract_x 
_atom_site_fract_y 
_atom_site_fract_z 
_atom_site_charge 
O1          O  0.05067410  0.04938729  0.46569163    -0.81400
O2          O  0.11359711  0.18213000  0.48379680    -0.66100
O3          O  0.09262645  0.10078404  0.48829746    -1.12700
C4          C  0.03247763  0.15399265  0.08333828     1.05500
O5          O  0.12051761  0.20387980  0.03805809    -0.79300
O6          O  0.11954270  0.15739423  0.06818770    -0.66900
Ni7        Ni  0.08380022  0.06930297  0.44616403     1.34900
C8          C  0.11425738  0.12999013  0.06998268     0.84200
O9          O  0.13750859  0.12717590  0.45344966    -0.79800
O10         O  0.11599898  0.08384128  0.41995625    -0.90100
C11         C  0.12477462  0.20520258  0.00760538     0.83800
O12         O  0.05184347  0.09351864  0.43271205    -0.68300
O13         O  0.05656100  0.17242481  0.08899835    -0.87600
C14         C  0.05295560  0.12160535  0.43159378     0.84600
C15         C  0.13681849  0.10549566  0.42574106     1.06200
H16         H  0.05408067  0.16797665  0.01193876     0.38000
O17         O  0.07224828  0.15811192  0.01941100    -1.10300
O18         O  0.08994167  0.11423419  0.05618521    -0.66900
Ni19       Ni  0.06002138  0.11762089  0.02108523     1.26300
O20         O  0.07335329  0.14106788  0.44870388    -0.67200
O21         O  0.02785972  0.13370347  0.05489081    -0.79400
C22         C  0.03912410  0.05194798  0.49525503     0.84000
O23         O  0.04744168  0.07685399  0.02093409    -0.66600
Ni24       Ni  0.08806800  0.18591861  0.06084439     1.27400
Ni25       Ni  0.10336625  0.14144869  0.48523754     1.26100
H26         H  0.11013237  0.09324243  0.49931892     0.38500
O27         O  0.22007279  0.29610093  0.45692305    -0.81400
O28         O  0.27542490  0.43037412  0.48099717    -0.66100
O29         O  0.26330286  0.34656485  0.48244987    -1.12700
C30         C  0.20252069  0.38973503  0.08014303     1.05500
O31         O  0.27940884  0.45281668  0.03706096    -0.79300
O32         O  0.28461296  0.40675885  0.06631063    -0.66900
Ni33       Ni  0.25713415  0.31400349  0.44065492     1.34900
C34         C  0.28619495  0.37824257  0.06566422     0.84200
O35         O  0.30252407  0.37775079  0.44806141    -0.79800
O36         O  0.29345630  0.32780604  0.41932204    -0.90100
C37         C  0.28392283  0.45498005  0.00697611     0.83800
O38         O  0.22858185  0.33635379  0.41995955    -0.68300
O39         O  0.22098066  0.41330370  0.08526867    -0.87600
C40         C  0.22372868  0.36517095  0.42361588     0.84600
C41         C  0.30875736  0.35336528  0.42407372     1.06200
H42         H  0.21755289  0.40798239  0.00937939     0.38000
O43         O  0.23754262  0.40097132  0.01677711    -1.10300
O44         O  0.26575499  0.35828441  0.04984626    -0.66900
Ni45       Ni  0.23266680  0.35848572  0.01668082     1.26300
O46         O  0.23801484  0.38655726  0.44592052    -0.67200
O47         O  0.20115916  0.36831536  0.05200339    -0.79400
C48         C  0.21225407  0.29453301  0.48651443     0.84000
O49         O  0.22682565  0.31557337  0.01343295    -0.66600
Ni50       Ni  0.24957251  0.43086369  0.05832901     1.27400
Ni51       Ni  0.26913828  0.38835931  0.48098889     1.26100
H52         H  0.28226218  0.34075338  0.49286025     0.38500
O53         O  0.21182025  0.20002945  0.28760983    -0.81400
O54         O  0.28256999  0.06912797  0.26632826    -0.66100
O55         O  0.25686113  0.15069396  0.26516528    -1.12700
C56         C  0.19690814  0.10113284  0.16899853     1.05500
O57         O  0.28393594  0.04711599  0.21017629    -0.79300
O58         O  0.28421079  0.09609441  0.18344216    -0.66900
Ni59       Ni  0.24478611  0.18052282  0.30776249     1.34900
C60         C  0.27885826  0.12371379  0.18227305     0.84200
O61         O  0.30155096  0.12481327  0.30046156    -0.79800
O62         O  0.27650514  0.16622287  0.33469127    -0.90100
C63         C  0.29182110  0.04768961  0.24041701     0.83800
O64         O  0.21326968  0.15429051  0.31888192    -0.68300
O65         O  0.22148253  0.08321694  0.16223855    -0.87600
C66         C  0.21687175  0.12618863  0.31914961     0.84600
C67         C  0.29803677  0.14504920  0.32909358     1.06200
H68         H  0.22030092  0.08529447  0.24092449     0.38000
O69         O  0.23768527  0.09529902  0.23228131    -1.10300
O70         O  0.25419127  0.13941324  0.19612094    -0.66900
Ni71       Ni  0.22411841  0.13580823  0.23147467     1.26300
O72         O  0.23820267  0.10785432  0.30148943    -0.67200
O73         O  0.19180112  0.11970560  0.19839290    -0.79400
C74         C  0.20199995  0.19835177  0.25773321     0.84000
O75         O  0.21006674  0.17634529  0.23186527    -0.66600
Ni76       Ni  0.25219691  0.06769198  0.18944519     1.27400
Ni77       Ni  0.26955342  0.10996710  0.26662630     1.26100
H78         H  0.27440706  0.15962786  0.25550513     0.38500
O79         O  0.05489695  0.45439231  0.29017203    -0.81400
O80         O  0.11323557  0.31756876  0.26268949    -0.66100
O81         O  0.09539931  0.40151546  0.26438223    -1.12700
C82         C  0.03019626  0.36029853  0.17049815     1.05500
O83         O  0.10760412  0.29415081  0.20740119    -0.79300
O84         O  0.11378941  0.34271378  0.18205545    -0.66900
Ni85       Ni  0.08634331  0.43112979  0.30792980     1.34900
C86         C  0.11400092  0.37084326  0.18111425     0.84200
O87         O  0.13854605  0.37073602  0.29505056    -0.79800
O88         O  0.11676018  0.41243096  0.33233475    -0.90100
C89         C  0.11844080  0.29490807  0.23657235     0.83800
O90         O  0.05243900  0.40704604  0.31840467    -0.68300
O91         O  0.05061129  0.33820088  0.16354315    -0.87600
C92         C  0.05409462  0.37868906  0.31814744     0.84600
C93         C  0.13663970  0.38971520  0.32457619     1.06200
H94         H  0.05107194  0.34132033  0.24263668     0.38000
O95         O  0.06930227  0.34872848  0.23239939    -1.10300
O96         O  0.09244181  0.39051089  0.19608150    -0.66900
Ni97       Ni  0.06123975  0.39084156  0.23213192     1.26300
O98         O  0.07464195  0.35947557  0.30068045    -0.67200
O99         O  0.02740162  0.37943018  0.19992486    -0.79400
C100        C  0.04495629  0.45453482  0.26083304     0.84000
O101        O  0.05233180  0.43308728  0.23408473    -0.66600
Ni102      Ni  0.07851120  0.31886768  0.18916573     1.27400
Ni103      Ni  0.10412090  0.35947172  0.26396324     1.26100
H104        H  0.11365424  0.40926166  0.25452063     0.38500
C105        C  0.00457312  0.03030004  0.27039852    -0.20800
C106        C  0.31406943  0.02339292  0.24559854    -0.07400
C107        C  0.31184348  0.99160042  0.22665022     0.13500
C108        C  0.33526179  0.46654864  0.22604845    -0.20900
C109        C  0.02210036  0.47935409  0.25780397    -0.07400
C110        C  0.02312964  0.51050199  0.27909304     0.13500
C111        C  0.04983047  0.01781463  0.30489345    -0.24200
H112        H  0.00532076  0.05397866  0.28705044     0.14800
H113        H  0.33627647  0.44313834  0.20886042     0.14800
C114        C  0.29335615  0.47828052  0.18748160    -0.24200
H115        H  0.04813645  0.04320895  0.31803600     0.05000
H116        H  0.07304705  0.51660172  0.29349974     0.08200
H117        H  0.04640422  0.50936543  0.32582171     0.08200
H118        H  0.28823672  0.99015348  0.17929664     0.06600
H119        H  0.26162404  0.98630027  0.21327272     0.08200
H120        H  0.29707149  0.45324974  0.17361012     0.05000
C121        C  0.13472019  0.25873323  0.26957233    -0.20800
C122        C  0.13872940  0.26883908  0.24031329    -0.07400
C123        C  0.16372650  0.25573979  0.21683509     0.13500
C124        C  0.18375824  0.23268761  0.22318555    -0.20900
C125        C  0.18011400  0.22294875  0.25279271    -0.07400
C126        C  0.15512957  0.23614524  0.27629358     0.13500
C127        C  0.14916455  0.22611733  0.30808357    -0.24200
H128        H  0.11550224  0.26875759  0.28742085     0.14800
H129        H  0.20292021  0.22267310  0.20525192     0.14800
C130        C  0.17046592  0.26688736  0.18589227    -0.24200
H131        H  0.12747587  0.23761855  0.32227975     0.05000
H132        H  0.16994154  0.23259367  0.32561012     0.08200
H133        H  0.14537976  0.20049902  0.30114533     0.08200
H134        H  0.17489894  0.29242808  0.19390802     0.08200
H135        H  0.14973676  0.26157468  0.16818160     0.08200
H136        H  0.19204548  0.25530069  0.17154584     0.05000
C137        C  0.32648785  0.34218522  0.36406164    -0.20800
C138        C  0.33315168  0.35604653  0.39877806    -0.07400
C139        C  0.02791161  0.35531060  0.39519153     0.13500
C140        C  0.04702977  0.36158391  0.36961569    -0.20900
C141        C  0.03297779  0.36832806  0.34138794    -0.07400
C142        C  0.34506569  0.34903526  0.33836830     0.13500
C143        C  0.33613275  0.33508873  0.30148098    -0.24200
H144        H  0.30561233  0.32726962  0.35700072     0.14800
H145        H  0.07297891  0.36253608  0.37233276     0.14800
C146        C  0.04373351  0.34834598  0.42533964    -0.24200
H147        H  0.31433701  0.32024946  0.29882008     0.05000
H148        H  0.35615807  0.32027535  0.28757340     0.08200
H149        H  0.33110558  0.35399220  0.28947399     0.08200
H150        H  0.03595674  0.32506684  0.42700667     0.08200
H151        H  0.03697735  0.36634816  0.44926447     0.08200
H152        H  0.07041546  0.34811838  0.42306225     0.05000
C153        C  0.33526849  0.33594386  0.11813487    -0.20800
C154        C  0.01029065  0.36465362  0.14257349    -0.07400
C155        C  0.00944821  0.39338298  0.13464104     0.13500
C156        C  0.98936686  0.39669165  0.10883106    -0.20900
C157        C  0.31191357  0.36936687  0.08646209    -0.07400
C158        C  0.31507916  0.33943251  0.09186863     0.13500
C159        C  0.29813243  0.31097744  0.07014751    -0.24200
H160        H  0.33677807  0.31361438  0.12358782     0.14800
H161        H  0.98850441  0.41938436  0.10417569     0.14800
C162        C  0.03031931  0.42090217  0.15131139    -0.24200
H163        H  0.30564375  0.28947621  0.07661663     0.05000
H164        H  0.30405246  0.30772633  0.04280846     0.08200
H165        H  0.27182157  0.31328149  0.07409913     0.08200
H166        H  0.04613259  0.41663928  0.17096339     0.08200
H167        H  0.01503269  0.44159270  0.16299355     0.08200
H168        H  0.04594893  0.42639229  0.13164018     0.05000
C169        C  0.17799932  0.35076809  0.38403805    -0.20800
C170        C  0.20022183  0.37362308  0.40039730    -0.07400
C171        C  0.20012238  0.40271135  0.39273817     0.13500
C172        C  0.17840686  0.40762230  0.36850902    -0.20900
C173        C  0.15729015  0.38414741  0.35136801    -0.07400
C174        C  0.15661512  0.35554593  0.35982418     0.13500
C175        C  0.13354616  0.32943322  0.34462194    -0.24200
H176        H  0.17720487  0.32865807  0.39007745     0.14800
H177        H  0.17859214  0.42954549  0.36206463     0.14800
C178        C  0.22360421  0.42818326  0.40849541    -0.24200
H179        H  0.14734977  0.30845874  0.33035009     0.05000
H180        H  0.11598033  0.33525717  0.32736185     0.08200
H181        H  0.11965532  0.32368768  0.36534889     0.08200
H182        H  0.24849501  0.41903197  0.40268202     0.08200
H183        H  0.21962491  0.43661066  0.43651823     0.08200
H184        H  0.22090897  0.44857616  0.39826489     0.05000
C185        C  0.16342221  0.41160395  0.12695880    -0.20800
C186        C  0.18267680  0.38648958  0.10877854    -0.07400
C187        C  0.18317929  0.35879911  0.11879632     0.13500
C188        C  0.16146420  0.35541124  0.14347951    -0.20900
C189        C  0.13957796  0.37922009  0.15959874    -0.07400
C190        C  0.14210643  0.40855247  0.15271774     0.13500
C191        C  0.12303181  0.43674812  0.17213521    -0.24200
H192        H  0.16450172  0.43343346  0.12036704     0.14800
H193        H  0.16164384  0.33338757  0.14970413     0.14800
C194        C  0.20692380  0.33260691  0.10516799    -0.24200
H195        H  0.12994666  0.45792351  0.16469226     0.05000
H196        H  0.12738339  0.44152837  0.19994405     0.08200
H197        H  0.09713880  0.43286395  0.16672829     0.08200
H198        H  0.22401584  0.33738932  0.08660658     0.08200
H199        H  0.19391641  0.31068777  0.09284702     0.08200
H200        H  0.22127762  0.32901324  0.12661933     0.05000
C201        C  0.01166924  0.16222594  0.37146897    -0.20800
C202        C  0.31829027  0.14221952  0.35772398    -0.07400
C203        C  0.31667017  0.11536672  0.36946462     0.13500
C204        C  0.33718699  0.11265193  0.39533889    -0.20900
C205        C  0.02985966  0.13075937  0.40814771    -0.07400
C206        C  0.03286932  0.15786735  0.39668410     0.13500
C207        C  0.05873609  0.18179853  0.40978403    -0.24200
H208        H  0.01406707  0.18260802  0.36227532     0.14800
H209        H  0.33550275  0.09175943  0.40374910     0.14800
C210        C  0.29367370  0.08877430  0.35575176    -0.24200
H211        H  0.05757455  0.20106035  0.39760897     0.05000
H212        H  0.08286925  0.17071655  0.40407269     0.08200
H213        H  0.05579276  0.19225810  0.43774211     0.08200
H214        H  0.27760783  0.09244011  0.33600686     0.08200
H215        H  0.27829228  0.08566197  0.37687501     0.08200
H216        H  0.30748616  0.06691515  0.34455502     0.05000
C217        C  0.28716431  0.14445398  0.13311041    -0.20800
C218        C  0.30046451  0.13680142  0.16118246    -0.07400
C219        C  0.00442465  0.14037952  0.16546069     0.13500
C220        C  0.02410702  0.14730514  0.14057497    -0.20900
C221        C  0.01074437  0.15395939  0.11195985    -0.07400
C222        C  0.30689425  0.15150357  0.10834154     0.13500
C223        C  0.29158221  0.15827123  0.07780881    -0.24200
H224        H  0.26130300  0.14319067  0.12955965     0.14800
H225        H  0.05004952  0.14571086  0.14241799     0.14800
C226        C  0.01978689  0.13240454  0.19529387    -0.24200
H227        H  0.26486763  0.15816164  0.07945328     0.05000
H228        H  0.29878735  0.14035365  0.05400907     0.08200
H229        H  0.29921120  0.18163796  0.07630116     0.08200
H230        H  0.01415315  0.10802645  0.19474372     0.08200
H231        H  0.01067562  0.14853411  0.21954687     0.08200
H232        H  0.04642258  0.13458985  0.19482683     0.05000
C233        C  0.14728124  0.10003328  0.36448613    -0.20800
C234        C  0.15939870  0.10683764  0.39794168    -0.07400
C235        C  0.19157261  0.11728499  0.40419164     0.13500
C236        C  0.21032357  0.12131125  0.37708234    -0.20900
C237        C  0.19762095  0.11589209  0.34420198    -0.07400
C238        C  0.16586190  0.10505447  0.33768113     0.13500
C239        C  0.15135136  0.09987166  0.30282023    -0.24200
H240        H  0.12255326  0.09238849  0.35966165     0.14800
H241        H  0.23465147  0.13019124  0.38189459     0.14800
C242        C  0.20639829  0.12428243  0.43917941    -0.24200
H243        H  0.12614845  0.09142198  0.30202841     0.05000
H244        H  0.16575239  0.08222170  0.28369747     0.08200
H245        H  0.15125747  0.12209873  0.29574386     0.08200
H246        H  0.20430796  0.10359888  0.44898216     0.08200
H247        H  0.19423678  0.14457943  0.45705863     0.08200
H248        H  0.23234817  0.13015152  0.43865391     0.05000
C249        C  0.18876911  0.10807089  0.11157844    -0.20800
C250        C  0.17514170  0.10269644  0.14095987    -0.07400
C251        C  0.14124879  0.10210581  0.14423096     0.13500
C252        C  0.12191091  0.10873924  0.11902894    -0.20900
C253        C  0.13565303  0.11709152  0.09141600    -0.07400
C254        C  0.16943066  0.11578706  0.08700072     0.13500
C255        C  0.18507158  0.12255374  0.05648692    -0.24200
H256        H  0.21474371  0.10796619  0.10880101     0.14800
H257        H  0.09593696  0.10916473  0.12192726     0.14800
C258        C  0.12539253  0.09463053  0.17424418    -0.24200
H259        H  0.21161092  0.11931238  0.05639105     0.05000
H260        H  0.18021915  0.14702585  0.05670056     0.08200
H261        H  0.17539372  0.10650954  0.03264185     0.08200
H262        H  0.13120376  0.11279104  0.19825056     0.08200
H263        H  0.13393762  0.07156030  0.17593443     0.08200
H264        H  0.09875152  0.09368970  0.17180219     0.05000
C265        C  0.34095486  0.00818630  0.47003126    -0.20800
C266        C  0.01635078  0.02792293  0.49952476    -0.07400
C267        C  0.00594582  0.02801727  0.03188918     0.13500
C268        C  0.97392977  0.50628372  0.02350378    -0.20900
C269        C  0.30500805  0.48072891  0.00252001    -0.07400
C270        C  0.31419967  0.48130536  0.47070172     0.13500
C271        C  0.30242335  0.46044835  0.43717019    -0.24200
H272        H  0.35346031  0.00763312  0.44651067     0.14800
H273        H  0.95435944  0.51048147  0.04194056     0.14800
C274        C  0.01977250  0.04801648  0.06500875    -0.24200
H275        H  0.32956838  0.96286706  0.41568527     0.05000
H276        H  0.26620498  0.47416479  0.94363445     0.08200
H277        H  0.30939889  0.43584573  0.43413756     0.08200
H278        H  0.01239197  0.07272221  0.06923524     0.08200
H279        H  0.06314161  0.02566452  0.54887310     0.08200
H280        H  0.96547784  0.56280419  0.06283237     0.05000
C281        C  0.16568811  0.21926151  0.47585806    -0.20800
C282        C  0.14642754  0.22957501  0.00166374    -0.07400
C283        C  0.14898292  0.25960269  0.02525042     0.13500
C284        C  0.17160241  0.28071428  0.01925633    -0.20900
C285        C  0.18826993  0.27134145  0.49027943    -0.07400
C286        C  0.18830688  0.24014774  0.46941008     0.13500
C287        C  0.21261479  0.22836299  0.44107733    -0.24200
H288        H  0.16622923  0.19516977  0.46032068     0.14800
H289        H  0.17307702  0.30382619  0.03702771     0.14800
C290        C  0.12740370  0.27015855  0.05629617    -0.24200
H291        H  0.20996612  0.20294395  0.42858204     0.05000
H292        H  0.23543288  0.23517838  0.94202761     0.08200
H293        H  0.20929667  0.24054213  0.42113594     0.08200
H294        H  0.13264465  0.25657670  0.07455258     0.08200
H295        H  0.09266306  0.26685390  0.53928855     0.08200
H296        H  0.13109462  0.29515971  0.07013519     0.05000
O297        O  0.04515129  0.05651632  0.96505661    -0.81400
O298        O  0.11264343  0.18523586  0.98219662    -0.66100
O299        O  0.09280510  0.10340675  0.98701017    -1.12700
C300        C  0.02729514  0.15061209  0.58040414     1.05500
O301        O  0.11403492  0.20536500  0.53963301    -0.79300
O302        O  0.11494805  0.15755363  0.56878051    -0.66900
Ni303      Ni  0.08361328  0.07026339  0.94665729     1.34900
C304        C  0.11013196  0.13018290  0.57110715     0.84200
O305        O  0.13284698  0.12964520  0.94684000    -0.79800
O306        O  0.12090443  0.07932871  0.92292039    -0.90100
C307        C  0.12178332  0.20436152  0.50912936     0.83800
O308        O  0.05744612  0.09413162  0.92556312    -0.68300
O309        O  0.05117399  0.16917618  0.58736729    -0.87600
C310        C  0.05346730  0.12299077  0.92863882     0.84600
C311        C  0.13723281  0.10373642  0.92436488     1.06200
H312        H  0.05245391  0.16485664  0.50838346     0.38000
O313        O  0.06984889  0.15577145  0.51801901    -1.10300
O314        O  0.08613776  0.11379824  0.55722916    -0.66900
Ni315      Ni  0.05774046  0.11536497  0.52000057     1.26300
O316        O  0.06881222  0.14429224  0.95035318    -0.67200
O317        O  0.02345947  0.13134782  0.55122853    -0.79400
C318        C  0.03707365  0.05639660  0.99512928     0.84000
O319        O  0.04500547  0.07495850  0.52067273    -0.66600
Ni320      Ni  0.08233664  0.18469591  0.56053518     1.27400
Ni321      Ni  0.10252016  0.14401593  0.98303962     1.26100
H322        H  0.11127293  0.09655836  0.99728232     0.38500
O323        O  0.22177013  0.29968184  0.95721746    -0.81400
O324        O  0.27243208  0.43489928  0.98143674    -0.66100
O325        O  0.26480579  0.35024213  0.98191607    -1.12700
C326        C  0.19724459  0.38663875  0.57683504     1.05500
O327        O  0.27349819  0.45261481  0.53669107    -0.79300
O328        O  0.28017607  0.40555484  0.56482665    -0.66900
Ni329      Ni  0.25866595  0.31758611  0.94047846     1.34900
C330        C  0.28075791  0.37767297  0.56664714     0.84200
O331        O  0.29868859  0.38304555  0.94481052    -0.79800
O332        O  0.29508332  0.33167987  0.91940271    -0.90100
C333        C  0.28235032  0.45264424  0.50680684     0.83800
O334        O  0.23003488  0.33961552  0.91927540    -0.68300
O335        O  0.21640389  0.40972968  0.58293875    -0.87600
C336        C  0.22207490  0.36810172  0.92480864     0.84600
C337        C  0.30752300  0.35842687  0.92252402     1.06200
H338        H  0.21623913  0.40501161  0.50470700     0.38000
O339        O  0.23525966  0.39825926  0.51419631    -1.10300
O340        O  0.26033431  0.35742118  0.55108911    -0.66900
Ni341      Ni  0.22932043  0.35613208  0.51513414     1.26300
O342        O  0.23403731  0.38986295  0.94867158    -0.67200
O343        O  0.19548128  0.36657171  0.54787986    -0.79400
C344        C  0.21539381  0.29683974  0.98670236     0.84000
O345        O  0.22291164  0.31375433  0.51320525    -0.66600
Ni346      Ni  0.24448752  0.42867056  0.55656508     1.27400
Ni347      Ni  0.26827767  0.39232676  0.98065500     1.26100
H348        H  0.28476901  0.34518420  0.99120070     0.38500
O349        O  0.21092266  0.19902417  0.78833911    -0.81400
O350        O  0.28126734  0.06823264  0.76478324    -0.66100
O351        O  0.25566958  0.14973084  0.76461766    -1.12700
C352        C  0.19404163  0.10126928  0.66959453     1.05500
O353        O  0.28082453  0.04547108  0.70884242    -0.79300
O354        O  0.28149972  0.09490377  0.68275718    -0.66900
Ni355      Ni  0.24417640  0.17905545  0.80773266     1.34900
C356        C  0.27635585  0.12260792  0.68176276     0.84200
O357        O  0.30139933  0.12352217  0.79824273    -0.79800
O358        O  0.27639021  0.16415647  0.83380896    -0.90100
C359        C  0.28963211  0.04641800  0.73893001     0.83800
O360        O  0.21285721  0.15255863  0.81882715    -0.68300
O361        O  0.21849319  0.08322340  0.66220823    -0.87600
C362        C  0.21690509  0.12441873  0.81879418     0.84600
C363        C  0.29823193  0.14321642  0.82727934     1.06200
H364        H  0.21852480  0.08462017  0.74110550     0.38000
O365        O  0.23571597  0.09448817  0.73200718    -1.10300
O366        O  0.25183954  0.13846788  0.69579317    -0.66900
Ni367      Ni  0.22230663  0.13510492  0.73167525     1.26300
O368        O  0.23822231  0.10647657  0.80079389    -0.67200
O369        O  0.18934795  0.11940510  0.69929083    -0.79400
C370        C  0.20070005  0.19757410  0.75863261     0.84000
O371        O  0.20850571  0.17570763  0.73254418    -0.66600
Ni372      Ni  0.24919719  0.06684391  0.68878509     1.27400
Ni373      Ni  0.26848936  0.10893843  0.76535603     1.26100
H374        H  0.27295804  0.15881441  0.75475108     0.38500
O375        O  0.05145144  0.45200269  0.78838972    -0.81400
O376        O  0.11159864  0.31614990  0.76306037    -0.66100
O377        O  0.09249628  0.39949335  0.76360014    -1.12700
C378        C  0.02787782  0.35729776  0.66959788     1.05500
O379        O  0.10349691  0.29118312  0.70847282    -0.79300
O380        O  0.11137874  0.33942208  0.68257672    -0.66900
Ni381      Ni  0.08331448  0.42958071  0.80674737     1.34900
C382        C  0.11120838  0.36720494  0.68041735     0.84200
O383        O  0.13635306  0.36993064  0.79487363    -0.79800
O384        O  0.11419733  0.41179142  0.83158792    -0.90100
C385        C  0.11542063  0.29272749  0.73738176     0.83800
O386        O  0.04992638  0.40538381  0.81796719    -0.68300
O387        O  0.04848117  0.33539611  0.66304996    -0.87600
C388        C  0.05231757  0.37732879  0.81868562     0.84600
C389        C  0.13434587  0.38927497  0.82425519     1.06200
H390        H  0.04847644  0.33913906  0.74323725     0.38000
O391        O  0.06656979  0.34634328  0.73260023    -1.10300
O392        O  0.08963662  0.38699385  0.69511170    -0.66900
Ni393      Ni  0.05837828  0.38812481  0.73137186     1.26300
O394        O  0.07285727  0.35809032  0.80120509    -0.67200
O395        O  0.02449955  0.37619556  0.69909805    -0.79400
C396        C  0.04197468  0.45176782  0.75876162     0.84000
O397        O  0.04954760  0.43006399  0.73236784    -0.66600
Ni398      Ni  0.07548992  0.31608037  0.68951999     1.27400
Ni399      Ni  0.10175223  0.35780086  0.76389160     1.26100
H400        H  0.11062167  0.40723427  0.75353586     0.38500
C401        C  0.00425944  0.03013257  0.76718328    -0.20800
C402        C  0.31201509  0.02234027  0.74436582    -0.07400
C403        C  0.31198418  0.99094866  0.72388724     0.13500
C404        C  0.33157464  0.46821176  0.73151692    -0.20900
C405        C  0.01969073  0.47659956  0.75485289    -0.07400
C406        C  0.02170430  0.50808619  0.77494229     0.13500
C407        C  0.05170425  0.01962209  0.80017055    -0.24200
H408        H  0.00641941  0.05451291  0.78141920     0.14800
H409        H  0.32938428  0.44363817  0.71808154     0.14800
C410        C  0.28178581  0.47722706  0.70106435    -0.24200
H411        H  0.05078833  0.04534359  0.81148126     0.05000
H412        H  0.07152599  0.51298265  0.78995641     0.08200
H413        H  0.04383850  0.50784498  0.82249835     0.08200
H414        H  0.29196789  0.99043942  0.67509504     0.06600
H415        H  0.26310244  0.98388589  0.70591277     0.08200
H416        H  0.28279214  0.45142160  0.69058001     0.05000
C417        C  0.13352518  0.25822581  0.77158833    -0.20800
C418        C  0.13572167  0.26673497  0.74117269    -0.07400
C419        C  0.15937619  0.25244414  0.71654549     0.13500
C420        C  0.18014559  0.23009086  0.72314939    -0.20900
C421        C  0.17848804  0.22205800  0.75396869    -0.07400
C422        C  0.15471371  0.23633621  0.77853321     0.13500
C423        C  0.15087951  0.22831114  0.81180039    -0.24200
H424        H  0.11519132  0.26904793  0.79021288     0.14800
H425        H  0.19827598  0.21919374  0.70430025     0.14800
C426        C  0.16389030  0.26148979  0.68390328    -0.24200
H427        H  0.12996347  0.24057000  0.82688653     0.05000
H428        H  0.17263927  0.23547748  0.82771871     0.08200
H429        H  0.14700325  0.20283242  0.80673577     0.08200
H430        H  0.16843027  0.28694816  0.68988634     0.08200
H431        H  0.14212100  0.25536242  0.66777860     0.08200
H432        H  0.18466382  0.24912820  0.66864319     0.05000
C433        C  0.32949746  0.34402726  0.86368709    -0.20800
C434        C  0.33212129  0.36208430  0.89786674    -0.07400
C435        C  0.02950280  0.35480873  0.89733148     0.13500
C436        C  0.04751481  0.36072838  0.87077592    -0.20900
C437        C  0.03223730  0.36750834  0.84314037    -0.07400
C438        C  0.34869233  0.35021452  0.83803165     0.13500
C439        C  0.34457773  0.33081985  0.80155325    -0.24200
H440        H  0.31147373  0.32584533  0.85679680     0.14800
H441        H  0.07356597  0.36136427  0.87224000     0.14800
C442        C  0.04653663  0.34827528  0.92706386    -0.24200
H443        H  0.32523630  0.31320780  0.79910162     0.05000
H444        H  0.36725054  0.31807729  0.79193875     0.08200
H445        H  0.33812036  0.34611146  0.78537780     0.08200
H446        H  0.03928131  0.32503917  0.92930179     0.08200
H447        H  0.04025473  0.36640804  0.95105829     0.08200
H448        H  0.07312808  0.34825951  0.92386062     0.05000
C449        C  0.32937277  0.33754868  0.62214115    -0.20800
C450        C  0.00890468  0.36195243  0.64108208    -0.07400
C451        C  0.00912799  0.39069589  0.63313008     0.13500
C452        C  0.98995902  0.39441005  0.60679350    -0.20900
C453        C  0.30510068  0.37014377  0.58990164    -0.07400
C454        C  0.30893826  0.34045912  0.59575408     0.13500
C455        C  0.29230169  0.31165986  0.57442603    -0.24200
H456        H  0.33168175  0.31522251  0.62746991     0.14800
H457        H  0.98966337  0.41718880  0.60232126     0.14800
C458        C  0.03040365  0.41772927  0.65024318    -0.24200
H459        H  0.29991719  0.29043760  0.58140558     0.05000
H460        H  0.29825035  0.30799674  0.54702548     0.08200
H461        H  0.26598289  0.31397830  0.57838844     0.08200
H462        H  0.04578800  0.41289003  0.66986280     0.08200
H463        H  0.01548787  0.43867652  0.66196403     0.08200
H464        H  0.04656183  0.42305315  0.63087987     0.05000
C465        C  0.17743640  0.35165954  0.88411389    -0.20800
C466        C  0.19788466  0.37569783  0.90168869    -0.07400
C467        C  0.19590474  0.40509630  0.89488036     0.13500
C468        C  0.17437557  0.40907114  0.86997521    -0.20900
C469        C  0.15511827  0.38444881  0.85149258    -0.07400
C470        C  0.15601046  0.35562327  0.85949605     0.13500
C471        C  0.13449109  0.32844054  0.84348060    -0.24200
H472        H  0.17806327  0.32928960  0.88959092     0.14800
H473        H  0.17324599  0.43124628  0.86413467     0.14800
C474        C  0.21724294  0.43196760  0.91234622    -0.24200
H475        H  0.14948493  0.30857007  0.82868843     0.05000
H476        H  0.11617700  0.33383081  0.82667241     0.08200
H477        H  0.12133158  0.32126542  0.86376126     0.08200
H478        H  0.24283007  0.42477314  0.90749552     0.08200
H479        H  0.21215198  0.43937297  0.94020478     0.08200
H480        H  0.21329803  0.45255805  0.90271930     0.05000
C481        C  0.16001017  0.40795798  0.62566614    -0.20800
C482        C  0.17726969  0.38239219  0.60511161    -0.07400
C483        C  0.17632478  0.35365958  0.61313158     0.13500
C484        C  0.15540329  0.35027641  0.63854350    -0.20900
C485        C  0.13586031  0.37497077  0.65748361    -0.07400
C486        C  0.13963533  0.40482172  0.65215935     0.13500
C487        C  0.12321130  0.43359477  0.67435665    -0.24200
H488        H  0.16215125  0.43041634  0.62062445     0.14800
H489        H  0.15440729  0.32758644  0.64319698     0.14800
C490        C  0.19790871  0.32625149  0.59698849    -0.24200
H491        H  0.13110702  0.45499614  0.66793729     0.05000
H492        H  0.12910915  0.43652225  0.70156960     0.08200
H493        H  0.09687784  0.43186128  0.67075534     0.08200
H494        H  0.21431260  0.33051552  0.57761518     0.08200
H495        H  0.18314569  0.30540103  0.58509324     0.08200
H496        H  0.21301752  0.32096431  0.61702191     0.05000
C497        C  0.00781604  0.16261377  0.87031987    -0.20800
C498        C  0.31932857  0.14002471  0.85521388    -0.07400
C499        C  0.31770072  0.11334378  0.86730177     0.13500
C500        C  0.33860811  0.11061149  0.89293672    -0.20900
C501        C  0.02970284  0.13084707  0.90493313    -0.07400
C502        C  0.02915179  0.15930319  0.89593058     0.13500
C503        C  0.05138275  0.18587342  0.91221020    -0.24200
H504        H  0.00758676  0.18408531  0.86296432     0.14800
H505        H  0.33690781  0.08992538  0.90172618     0.14800
C506        C  0.29419175  0.08706456  0.85430807    -0.24200
H507        H  0.04799771  0.20591077  0.90153024     0.05000
H508        H  0.07683198  0.17803845  0.90763689     0.08200
H509        H  0.04648652  0.19431869  0.94007654     0.08200
H510        H  0.27853020  0.09035847  0.83405321     0.08200
H511        H  0.27849078  0.08496265  0.87564248     0.08200
H512        H  0.30755119  0.06479773  0.84395879     0.05000
C513        C  0.28474995  0.14544078  0.63410982    -0.20800
C514        C  0.29812076  0.13576345  0.66091568    -0.07400
C515        C  0.99983231  0.13335072  0.66088167     0.13500
C516        C  0.01915061  0.14112242  0.63628465    -0.20900
C517        C  0.00550871  0.14873077  0.60834727    -0.07400
C518        C  0.30446516  0.15326727  0.60979852     0.13500
C519        C  0.28923846  0.16204673  0.58040401    -0.24200
H520        H  0.25881572  0.14516458  0.63109359     0.14800
H521        H  0.04507880  0.13971548  0.63791123     0.14800
C522        C  0.01567916  0.12386368  0.68956550    -0.24200
H523        H  0.26252584  0.16232301  0.58222802     0.05000
H524        H  0.29617577  0.14499461  0.55586289     0.08200
H525        H  0.29732215  0.18569950  0.58036330     0.08200
H526        H  0.01001268  0.09921755  0.68779456     0.08200
H527        H  0.00704612  0.13916307  0.71450323     0.08200
H528        H  0.04230001  0.12591934  0.68869773     0.05000
C529        C  0.15045208  0.09245700  0.86289918    -0.20800
C530        C  0.16082144  0.10301153  0.89699207    -0.07400
C531        C  0.19153370  0.11679501  0.90418394     0.13500
C532        C  0.20999513  0.12186437  0.87746318    -0.20900
C533        C  0.19849634  0.11352842  0.84391349    -0.07400
C534        C  0.16897647  0.09777392  0.83619178     0.13500
C535        C  0.15664212  0.08771387  0.80014008    -0.24200
H536        H  0.12691241  0.08182120  0.85741223     0.14800
H537        H  0.23306926  0.13349694  0.88294416     0.14800
C538        C  0.20497024  0.12611959  0.93987177    -0.24200
H539        H  0.13300630  0.07580263  0.79853050     0.05000
H540        H  0.17406674  0.07125988  0.78354510     0.08200
H541        H  0.15367247  0.10838099  0.79043970     0.08200
H542        H  0.20509345  0.10563086  0.95015041     0.08200
H543        H  0.19032782  0.14511049  0.95683046     0.08200
H544        H  0.23008814  0.13473117  0.94032223     0.05000
C545        C  0.18502659  0.10795813  0.61205915    -0.20800
C546        C  0.17184475  0.10342694  0.64207239    -0.07400
C547        C  0.13800380  0.10389893  0.64630846     0.13500
C548        C  0.11836879  0.11063200  0.62138459    -0.20900
C549        C  0.13172472  0.11797589  0.59301070    -0.07400
C550        C  0.16535918  0.11560550  0.58764677     0.13500
C551        C  0.18043568  0.12092526  0.55612961    -0.24200
H552        H  0.21094120  0.10706841  0.60851768     0.14800
H553        H  0.09250236  0.11152750  0.62484562     0.14800
C554        C  0.12248152  0.09718432  0.67691739    -0.24200
H555        H  0.20689980  0.11704743  0.55535442     0.05000
H556        H  0.17599417  0.14524955  0.55552612     0.08200
H557        H  0.16990967  0.10452652  0.53300130     0.08200
H558        H  0.12890975  0.11547887  0.70059578     0.08200
H559        H  0.13065695  0.07406822  0.67881657     0.08200
H560        H  0.09580758  0.09670983  0.67503722     0.05000
C561        C  0.34711581  0.00455888  0.97056436    -0.20800
C562        C  0.01416057  0.03206677  0.99959984    -0.07400
C563        C  0.01467325  0.01838584  0.52965548     0.13500
C564        C  0.97407599  0.50716983  0.52468366    -0.20900
C565        C  0.30302749  0.47885127  0.50278933    -0.07400
C566        C  0.31031900  0.48724995  0.97086101     0.13500
C567        C  0.29245111  0.47063141  0.93890541    -0.24200
H568        H  0.36263178  0.00253192  0.94860591     0.14800
H569        H  0.95595841  0.51049355  0.54461198     0.14800
C570        C  0.03804196  0.03011174  0.55860977    -0.24200
H571        H  0.34570754  0.95348407  0.92072660     0.05000
H572        H  0.27595475  0.46292547  0.43622549     0.08200
H573        H  0.29845978  0.44539600  0.93111278     0.08200
H574        H  0.03440231  0.05546030  0.57068644     0.08200
H575        H  0.04644236  0.04600503  0.06442001     0.08200
H576        H  0.96856687  0.56204045  0.56847236     0.05000
C577        C  0.16604555  0.22205534  0.97226383    -0.20800
C578        C  0.14309887  0.22859492  0.50265779    -0.07400
C579        C  0.14213117  0.26017397  0.52249786     0.13500
C580        C  0.16459389  0.28110166  0.51579705    -0.20900
C581        C  0.19194661  0.27293322  0.99049142    -0.07400
C582        C  0.18874960  0.24326598  0.96632198     0.13500
C583        C  0.20963581  0.23331431  0.93474385    -0.24200
H584        H  0.16414000  0.19911123  0.95415290     0.14800
H585        H  0.16361480  0.30542487  0.53053499     0.14800
C586        C  0.11715994  0.27228312  0.55007588    -0.24200
H587        H  0.20499159  0.20875720  0.91985323     0.05000
H588        H  0.23737840  0.23244550  0.45147209     0.08200
H589        H  0.20460238  0.24821174  0.91776358     0.08200
H590        H  0.12069314  0.26156677  0.57119063     0.08200
H591        H  0.10177447  0.26718256  0.04845193     0.08200
H592        H  0.11880174  0.29797950  0.56122423     0.05000
O593        O  0.05122627  0.55148592  0.46510561    -0.81400
O594        O  0.12009694  0.68253969  0.48521910    -0.66100
O595        O  0.09393517  0.60179565  0.48809374    -1.12700
C596        C  0.02994718  0.64901993  0.08012006     1.05500
O597        O  0.11526314  0.70527654  0.03926291    -0.79300
O598        O  0.11696057  0.65729052  0.06741117    -0.66900
Ni599      Ni  0.08357550  0.57191883  0.44543448     1.34900
C600        C  0.11265570  0.62980654  0.06947849     0.84200
O601        O  0.14101952  0.62621341  0.45441313    -0.79800
O602        O  0.11514104  0.58684569  0.41905670    -0.90100
C603        C  0.12511491  0.70376273  0.00928078     0.83800
O604        O  0.05165318  0.59819967  0.43530488    -0.68300
O605        O  0.05357745  0.66785853  0.08693534    -0.87600
C606        C  0.05521909  0.62587814  0.43338525     0.84600
C607        C  0.13822584  0.60618300  0.42566013     1.06200
H608        H  0.05455376  0.66444020  0.00722777     0.38000
O609        O  0.07188276  0.65531078  0.01690255    -1.10300
O610        O  0.08899407  0.61297883  0.05522945    -0.66900
Ni611      Ni  0.05957276  0.61476038  0.01873857     1.26300
O612        O  0.07784071  0.64357930  0.44885136    -0.67200
O613        O  0.02583535  0.63040551  0.05069545    -0.79400
C614        C  0.03925853  0.55387043  0.49444543     0.84000
O615        O  0.04688781  0.57420353  0.01927507    -0.66600
Ni616      Ni  0.08398050  0.68405757  0.05980959     1.27400
Ni617      Ni  0.10695548  0.64212624  0.48580307     1.26100
H618        H  0.11075918  0.59304700  0.49884630     0.38500
O619        O  0.22323800  0.79838867  0.45946155    -0.81400
O620        O  0.27877377  0.93333715  0.47939135    -0.66100
O621        O  0.26538416  0.85008853  0.48292233    -1.12700
C622        C  0.19991490  0.89192089  0.07609685     1.05500
O623        O  0.27550822  0.95651641  0.03364268    -0.79300
O624        O  0.28320090  0.90985809  0.06298164    -0.66900
Ni625      Ni  0.25891942  0.81694108  0.44168752     1.34900
C626        C  0.28325757  0.88220376  0.06566825     0.84200
O627        O  0.30575506  0.88001012  0.44855353    -0.79800
O628        O  0.29399472  0.83095851  0.41877964    -0.90100
C629        C  0.28743637  0.95451016  0.00433295     0.83800
O630        O  0.22896419  0.83865556  0.42179312    -0.68300
O631        O  0.21983019  0.91431457  0.08178440    -0.87600
C632        C  0.22588860  0.86733112  0.42353197     0.84600
C633        C  0.31049100  0.85584163  0.42383005     1.06200
H634        H  0.22055808  0.90804183  0.00105635     0.38000
O635        O  0.23870395  0.90128605  0.01189976    -1.10300
O636        O  0.26218751  0.86214345  0.05099512    -0.66900
Ni637      Ni  0.23099478  0.85987063  0.01475140     1.26300
O638        O  0.24152701  0.88890420  0.44429284    -0.67200
O639        O  0.19699586  0.87237894  0.04702451    -0.79400
C640        C  0.21582323  0.79771903  0.48947740     0.84000
O641        O  0.22282581  0.81820848  0.01530185    -0.66600
Ni642      Ni  0.24728706  0.93257177  0.05420175     1.27400
Ni643      Ni  0.27175219  0.89155821  0.48051778     1.26100
H644        H  0.28427412  0.84429133  0.49345187     0.38500
O645        O  0.21550451  0.69881463  0.28839354    -0.81400
O646        O  0.28053568  0.56473178  0.26317294    -0.66100
O647        O  0.25783285  0.64742217  0.26359090    -1.12700
C648        C  0.19468495  0.60075600  0.16948194     1.05500
O649        O  0.28195820  0.54385769  0.20700545    -0.79300
O650        O  0.28200994  0.59394715  0.18180330    -0.66900
Ni651      Ni  0.24827408  0.67746270  0.30684472     1.34900
C652        C  0.27690570  0.62172175  0.18100139     0.84200
O653        O  0.30270346  0.61918137  0.29675199    -0.79800
O654        O  0.28007954  0.66130505  0.33227648    -0.90100
C655        C  0.28971066  0.54353624  0.23704700     0.83800
O656        O  0.21610566  0.65240128  0.31873099    -0.68300
O657        O  0.21891003  0.58242227  0.16185877    -0.87600
C658        C  0.21854857  0.62403262  0.31834068     0.84600
C659        C  0.30066780  0.63922076  0.32563836     1.06200
H660        H  0.21912443  0.58289471  0.23983018     0.38000
O661        O  0.23643207  0.59280259  0.23094865    -1.10300
O662        O  0.25239306  0.63750722  0.19511599    -0.66900
Ni663      Ni  0.22347422  0.63379373  0.23138809     1.26300
O664        O  0.23872019  0.60492206  0.29980700    -0.67200
O665        O  0.18996682  0.61868162  0.19933331    -0.79400
C666        C  0.20376387  0.69737434  0.25929692     0.84000
O667        O  0.20968212  0.67475220  0.23318332    -0.66600
Ni668      Ni  0.24992238  0.56557440  0.18760446     1.27400
Ni669      Ni  0.26934344  0.60608417  0.26414133     1.26100
H670        H  0.27531035  0.65576245  0.25320158     0.38500
O671        O  0.05369818  0.95002261  0.28822594    -0.81400
O672        O  0.10631312  0.81386767  0.26522431    -0.66100
O673        O  0.09623579  0.89814580  0.26398523    -1.12700
C674        C  0.03430413  0.85798913  0.16695058     1.05500
O675        O  0.11101004  0.79395975  0.20923149    -0.79300
O676        O  0.11686678  0.84101047  0.18099329    -0.66900
Ni677      Ni  0.08943601  0.93099230  0.30549198     1.34900
C678        C  0.11689439  0.86914846  0.18002094     0.84200
O679        O  0.13238095  0.86580816  0.30037082    -0.79800
O680        O  0.12426600  0.91634765  0.32815814    -0.90100
C681        C  0.11637842  0.79279844  0.23945375     0.83800
O682        O  0.05982624  0.90928530  0.32591526    -0.68300
O683        O  0.05366163  0.83492241  0.16142969    -0.87600
C684        C  0.05470661  0.88053177  0.32229579     0.84600
C685        C  0.13749614  0.88989399  0.32499384     1.06200
H686        H  0.04996777  0.83950792  0.23869236     0.38000
O687        O  0.06952383  0.84669686  0.23049734    -1.10300
O688        O  0.09582072  0.88875879  0.19563789    -0.66900
Ni689      Ni  0.06351511  0.88895100  0.23004864     1.26300
O690        O  0.06793747  0.85857216  0.29926565    -0.67200
O691        O  0.03145987  0.87832346  0.19574430    -0.79400
C692        C  0.04698886  0.95181514  0.25847408     0.84000
O693        O  0.05684587  0.93148548  0.23194554    -0.66600
Ni694      Ni  0.08166096  0.81681311  0.18844437     1.27400
Ni695      Ni  0.10109699  0.85614183  0.26553564     1.26100
H696        H  0.11580761  0.90352473  0.25410826     0.38500
C697        C  0.00008950  0.53221031  0.27479914    -0.20800
C698        C  0.31152845  0.51866829  0.24221395    -0.07400
C699        C  0.31378461  0.48832926  0.21911287     0.13500
C700        C  0.33421259  0.97010142  0.23251751    -0.20900
C701        C  0.02531240  0.97702212  0.25428698    -0.07400
C702        C  0.02597132  0.00790257  0.27617811     0.13500
C703        C  0.04887582  0.52142451  0.30565746    -0.24200
H704        H  0.00126390  0.55615963  0.29069804     0.14800
H705        H  0.33197050  0.94560912  0.21875875     0.14800
C706        C  0.28553366  0.97991488  0.20092061    -0.24200
H707        H  0.04710303  0.54689854  0.31834718     0.05000
H708        H  0.07471251  0.01274383  0.29467722     0.08200
H709        H  0.04513896  0.00525971  0.32427582     0.08200
H710        H  0.29978583  0.49196732  0.16959893     0.06600
H711        H  0.26747078  0.48169258  0.19455969     0.08200
H712        H  0.28639485  0.95413444  0.19013100     0.05000
C713        C  0.15783663  0.77464773  0.27311430    -0.20800
C714        C  0.13714750  0.76744709  0.24484431    -0.07400
C715        C  0.13820413  0.73706138  0.22183636     0.13500
C716        C  0.16003208  0.71505134  0.22756819    -0.20900
C717        C  0.18124942  0.72233281  0.25550661    -0.07400
C718        C  0.17985427  0.75271905  0.27878205     0.13500
C719        C  0.20187378  0.76285007  0.30916830    -0.24200
H720        H  0.15739865  0.79801459  0.29052952     0.14800
H721        H  0.16038702  0.69178691  0.20992928     0.14800
C722        C  0.11603659  0.72724142  0.19154105    -0.24200
H723        H  0.19849176  0.78788378  0.32322701     0.05000
H724        H  0.22739060  0.75953608  0.30058801     0.08200
H725        H  0.19673394  0.74920359  0.32743547     0.08200
H726        H  0.12178347  0.74031249  0.17288073     0.08200
H727        H  0.09060527  0.73160901  0.20016104     0.08200
H728        H  0.11856607  0.70200971  0.17793782     0.05000
C729        C  0.32569642  0.84710985  0.36348334    -0.20800
C730        C  0.33436420  0.85823881  0.39803151    -0.07400
C731        C  0.02006533  0.88556339  0.40886804     0.13500
C732        C  0.03908251  0.89012141  0.38238141    -0.20900
C733        C  0.03433120  0.87271967  0.34833719    -0.07400
C734        C  0.34392084  0.85463574  0.33796431     0.13500
C735        C  0.33336938  0.84333735  0.30130849    -0.24200
H736        H  0.30368150  0.83387215  0.35660485     0.14800
H737        H  0.05774870  0.90774827  0.38827937     0.14800
C738        C  0.02678439  0.90517304  0.44488611    -0.24200
H739        H  0.31084993  0.82950180  0.29859283     0.05000
H740        H  0.35236208  0.82823871  0.28571425     0.08200
H741        H  0.32892927  0.86359474  0.29125873     0.08200
H742        H  0.02999018  0.88987572  0.46182487     0.08200
H743        H  0.00685034  0.92197183  0.45456472     0.08200
H744        H  0.04908949  0.91914043  0.44624554     0.05000
C745        C  0.33292204  0.84105127  0.11945008    -0.20800
C746        C  0.01564203  0.86231865  0.13809579    -0.07400
C747        C  0.01636107  0.89082535  0.12963724     0.13500
C748        C  0.99571109  0.89519818  0.10473456    -0.20900
C749        C  0.30761092  0.87463198  0.08896350    -0.07400
C750        C  0.31254348  0.84446754  0.09321724     0.13500
C751        C  0.29730913  0.81564949  0.07012785    -0.24200
H752        H  0.33585844  0.81830227  0.12360843     0.14800
H753        H  0.99582643  0.91782551  0.09988964     0.14800
C754        C  0.03924606  0.91700142  0.14516165    -0.24200
H755        H  0.30607608  0.79409257  0.07563777     0.05000
H756        H  0.30333705  0.81375100  0.04308895     0.08200
H757        H  0.27090240  0.81645887  0.07376344     0.08200
H758        H  0.05490845  0.91190652  0.16446625     0.08200
H759        H  0.02558733  0.93874230  0.15710372     0.08200
H760        H  0.05502136  0.92112411  0.12483254     0.05000
C761        C  0.17531116  0.85688403  0.39116960    -0.20800
C762        C  0.20272174  0.87556797  0.40009125    -0.07400
C763        C  0.20782713  0.90029178  0.38525329     0.13500
C764        C  0.18558726  0.90519491  0.36146776    -0.20900
C765        C  0.15868961  0.88591987  0.35212232    -0.07400
C766        C  0.15299386  0.86197252  0.36791498     0.13500
C767        C  0.12331041  0.84173023  0.36185040    -0.24200
H768        H  0.17097158  0.83823245  0.40279665     0.14800
H769        H  0.18966733  0.92354348  0.34936495     0.14800
C770        C  0.23714996  0.92077104  0.39317122    -0.24200
H771        H  0.13031618  0.81700605  0.35004472     0.05000
H772        H  0.10541300  0.84845520  0.34537148     0.08200
H773        H  0.11108669  0.84364240  0.38662711     0.08200
H774        H  0.25933301  0.90621412  0.38761468     0.08200
H775        H  0.23659726  0.93453787  0.42044097     0.08200
H776        H  0.23809659  0.93756270  0.37769033     0.05000
C777        C  0.16386963  0.91233015  0.12637887    -0.20800
C778        C  0.18105428  0.88724098  0.10491518    -0.07400
C779        C  0.18114319  0.85826337  0.11242010     0.13500
C780        C  0.16067246  0.85382774  0.13762300    -0.20900
C781        C  0.14116905  0.87795860  0.15747531    -0.07400
C782        C  0.14445009  0.90832323  0.15321113     0.13500
C783        C  0.12884744  0.93677466  0.17705840    -0.24200
H784        H  0.16543829  0.93506753  0.12191978     0.14800
H785        H  0.16020047  0.83085351  0.14159462     0.14800
C786        C  0.20366600  0.83177689  0.09613435    -0.24200
H787        H  0.13660775  0.95855223  0.17137209     0.05000
H788        H  0.13571070  0.93863681  0.20379922     0.08200
H789        H  0.10241164  0.93562869  0.17460505     0.08200
H790        H  0.22026352  0.83740474  0.07783432     0.08200
H791        H  0.18976510  0.81064584  0.08318226     0.08200
H792        H  0.21864214  0.82636247  0.11619006     0.05000
C793        C  0.01889770  0.66199791  0.36710802    -0.20800
C794        C  0.32158167  0.63517677  0.35331551    -0.07400
C795        C  0.31757422  0.60952139  0.36682966     0.13500
C796        C  0.33808028  0.60608657  0.39246774    -0.20900
C797        C  0.03229474  0.63660611  0.41109498    -0.07400
C798        C  0.04054030  0.65751295  0.39191324     0.13500
C799        C  0.07254167  0.67392578  0.39609684    -0.24200
H800        H  0.02534080  0.67731271  0.35177340     0.14800
H801        H  0.33446210  0.58629333  0.40246949     0.14800
C802        C  0.29202280  0.58497941  0.35527610    -0.24200
H803        H  0.07519635  0.68860755  0.37840101     0.05000
H804        H  0.09241900  0.65650273  0.39059452     0.08200
H805        H  0.07477640  0.68941869  0.42255193     0.08200
H806        H  0.27693128  0.58859034  0.33475394     0.08200
H807        H  0.27608527  0.58489502  0.37717414     0.08200
H808        H  0.30353605  0.56165108  0.34575275     0.05000
C809        C  0.28593519  0.64503882  0.13364473    -0.20800
C810        C  0.29891335  0.63489100  0.16034571    -0.07400
C811        C  0.00299580  0.63462495  0.16282861     0.13500
C812        C  0.02216915  0.64124287  0.13729086    -0.20900
C813        C  0.00830445  0.64659736  0.10813014    -0.07400
C814        C  0.30593725  0.65111663  0.10847216     0.13500
C815        C  0.29126925  0.66091066  0.07944868    -0.24200
H816        H  0.26004632  0.64651964  0.13141110     0.14800
H817        H  0.04816883  0.64096922  0.13940752     0.14800
C818        C  0.01880791  0.62804904  0.19318947    -0.24200
H819        H  0.26467383  0.66325615  0.08208769     0.05000
H820        H  0.29679923  0.64332936  0.05479738     0.08200
H821        H  0.30121273  0.68384207  0.07902449     0.08200
H822        H  0.01297445  0.60405384  0.19400419     0.08200
H823        H  0.01006009  0.64505950  0.21704007     0.08200
H824        H  0.04544087  0.62998732  0.19211418     0.05000
C825        C  0.14878423  0.59948919  0.36420231    -0.20800
C826        C  0.16088267  0.60681820  0.39772871    -0.07400
C827        C  0.19335379  0.61637437  0.40369326     0.13500
C828        C  0.21206796  0.62001319  0.37644305    -0.20900
C829        C  0.19933462  0.61419576  0.34356409    -0.07400
C830        C  0.16764327  0.60330413  0.33707398     0.13500
C831        C  0.15357394  0.59666283  0.30184393    -0.24200
H832        H  0.12397426  0.59211825  0.35942538     0.14800
H833        H  0.23646744  0.62872600  0.38107711     0.14800
C834        C  0.20865464  0.62258896  0.43838899    -0.24200
H835        H  0.12832705  0.58834705  0.30115000     0.05000
H836        H  0.16810318  0.57835563  0.28365601     0.08200
H837        H  0.15377221  0.61820297  0.29342499     0.08200
H838        H  0.20583633  0.60187847  0.44803635     0.08200
H839        H  0.19744768  0.64326355  0.45661151     0.08200
H840        H  0.23482481  0.62742850  0.43741993     0.05000
C841        C  0.18729089  0.61310757  0.11485522    -0.20800
C842        C  0.17335683  0.60383797  0.14177992    -0.07400
C843        C  0.13964417  0.60014853  0.14279441     0.13500
C844        C  0.12059398  0.60674608  0.11731812    -0.20900
C845        C  0.13437671  0.61818246  0.09176454    -0.07400
C846        C  0.16822429  0.62098152  0.09023136     0.13500
C847        C  0.18437712  0.63217655  0.06272156    -0.24200
H848        H  0.21319447  0.61557220  0.11399864     0.14800
H849        H  0.09465647  0.60444816  0.11834328     0.14800
C850        C  0.12378599  0.58923277  0.17059636    -0.24200
H851        H  0.21103957  0.63126636  0.06435537     0.05000
H852        H  0.17750491  0.65673301  0.06526556     0.08200
H853        H  0.17715740  0.61721009  0.03719118     0.08200
H854        H  0.12805461  0.60631620  0.19581068     0.08200
H855        H  0.13385114  0.56619655  0.17060205     0.08200
H856        H  0.09733340  0.58670822  0.16692519     0.05000
C857        C  0.33649674  0.50451956  0.46958056    -0.20800
C858        C  0.01798754  0.52822775  0.49824561    -0.07400
C859        C  0.99415974  0.53113395  0.02260772     0.13500
C860        C  0.98443656  0.00427489  0.03351482    -0.20900
C861        C  0.30707696  0.98131660  0.99994258    -0.07400
C862        C  0.31987780  0.98364542  0.47008818     0.13500
C863        C  0.31545511  0.95836504  0.43697401    -0.24200
H864        H  0.34501700  0.50570443  0.44485953     0.14800
H865        H  0.97876345  0.00130200  0.05832200     0.14800
C866        C  0.98724678  0.56288231  0.04692063    -0.24200
H867        H  0.31267037  0.46692148  0.41494473     0.05000
H868        H  0.30451869  0.94599681  0.92862049     0.08200
H869        H  0.32366187  0.93560334  0.43965126     0.08200
H870        H  0.98301181  0.57994408  0.03225595     0.08200
H871        H  0.01082297  0.56922004  0.56729336     0.08200
H872        H  0.01110286  0.04078991  0.08739117     0.05000
C873        C  0.17316178  0.72049437  0.48045247    -0.20800
C874        C  0.14721605  0.72816981  0.00430172    -0.07400
C875        C  0.14439745  0.75999063  0.02310100     0.13500
C876        C  0.16676591  0.78149831  0.01739244    -0.20900
C877        C  0.19345876  0.77352554  0.49421549    -0.07400
C878        C  0.19557145  0.74192938  0.47468292     0.13500
C879        C  0.22188394  0.73037396  0.44851475    -0.24200
H880        H  0.17497872  0.69625078  0.46560249     0.14800
H881        H  0.16391530  0.80602955  0.03083234     0.14800
C882        C  0.11745747  0.77175609  0.04844623    -0.24200
H883        H  0.22086312  0.70467211  0.43711259     0.05000
H884        H  0.24585481  0.73507785  0.96325798     0.08200
H885        H  0.21941164  0.74128152  0.42741017     0.08200
H886        H  0.11974920  0.76175715  0.07027534     0.08200
H887        H  0.09679781  0.76690014  0.54008211     0.08200
H888        H  0.11794059  0.79755947  0.05903299     0.05000
O889        O  0.05088056  0.54946508  0.96393863    -0.81400
O890        O  0.11809430  0.68130432  0.98353859    -0.66100
O891        O  0.09348092  0.60007603  0.98605901    -1.12700
C892        C  0.02913610  0.65255577  0.57989937     1.05500
O893        O  0.11735819  0.70661709  0.54089216    -0.79300
O894        O  0.11691215  0.65823708  0.56901892    -0.66900
Ni895      Ni  0.08233283  0.57039953  0.94355098     1.34900
C896        C  0.11131363  0.63099529  0.57131608     0.84200
O897        O  0.13919192  0.62522955  0.95186760    -0.79800
O898        O  0.11283484  0.58598997  0.91655984    -0.90100
C899        C  0.12710095  0.70509085  0.51086386     0.83800
O900        O  0.04974683  0.59659998  0.93450331    -0.68300
O901        O  0.05342828  0.67052160  0.58730973    -0.87600
C902        C  0.05333282  0.62396825  0.93160752     0.84600
C903        C  0.13577753  0.60549594  0.92299626     1.06200
H904        H  0.05629662  0.66709846  0.50802292     0.38000
O905        O  0.07303537  0.65750998  0.51800177    -1.10300
O906        O  0.08715441  0.61498486  0.55705647    -0.66900
Ni907      Ni  0.05921110  0.61733900  0.51957334     1.26300
O908        O  0.07575649  0.64196572  0.94716098    -0.67200
O909        O  0.02499348  0.63414758  0.55036450    -0.79400
C910        C  0.04044733  0.55139034  0.99379820     0.84000
O911        O  0.04473898  0.57709765  0.51986942    -0.66600
Ni912      Ni  0.08506927  0.68600175  0.56096736     1.27400
Ni913      Ni  0.10548906  0.64065122  0.98389172     1.26100
H914        H  0.11088201  0.59138861  0.99610110     0.38500
O915        O  0.22324469  0.79598409  0.95935190    -0.81400
O916        O  0.28388972  0.93032818  0.97948453    -0.66100
O917        O  0.26506320  0.84779164  0.98241324    -1.12700
C918        C  0.20010351  0.89166912  0.57731433     1.05500
O919        O  0.27389140  0.95754695  0.53452336    -0.79300
O920        O  0.28280888  0.91133002  0.56355428    -0.66900
Ni921      Ni  0.25635386  0.81643668  0.94030187     1.34900
C922        C  0.28371333  0.88354420  0.56567867     0.84200
O923        O  0.30893041  0.87562332  0.95004507    -0.79800
O924        O  0.28863221  0.83198966  0.91523812    -0.90100
C925        C  0.28395092  0.95666253  0.50479119     0.83800
O926        O  0.22406718  0.84028763  0.92666699    -0.68300
O927        O  0.21933094  0.91463836  0.58286065    -0.87600
C928        C  0.22502597  0.86837701  0.92559791     0.84600
C929        C  0.30903258  0.85406238  0.92222121     1.06200
H930        H  0.21839153  0.90866339  0.50306346     0.38000
O931        O  0.23725794  0.90228469  0.51314581    -1.10300
O932        O  0.26286256  0.86326801  0.55128040    -0.66900
Ni933      Ni  0.23142167  0.86053288  0.51555891     1.26300
O934        O  0.24518203  0.88800707  0.94282985    -0.67200
O935        O  0.19771289  0.87167774  0.54840410    -0.79400
C936        C  0.21461554  0.79648449  0.98938175     0.84000
O937        O  0.22532165  0.81849106  0.51558134    -0.66600
Ni938      Ni  0.24620873  0.93343535  0.55530106     1.27400
Ni939      Ni  0.27401121  0.88900030  0.98042965     1.26100
H940        H  0.28326230  0.84051570  0.99270791     0.38500
O941        O  0.21583866  0.70146805  0.78789892    -0.81400
O942        O  0.28095599  0.56773682  0.76530899    -0.66100
O943        O  0.25740056  0.64973697  0.76430141    -1.12700
C944        C  0.19315357  0.60196167  0.67134545     1.05500
O945        O  0.27888801  0.54429025  0.70955538    -0.79300
O946        O  0.28048420  0.59309597  0.68274338    -0.66900
Ni947      Ni  0.24685758  0.67943070  0.80742689     1.34900
C948        C  0.27611228  0.62073801  0.68118349     0.84200
O949        O  0.30254745  0.62289625  0.79760545    -0.79800
O950        O  0.27697093  0.66254794  0.83387865    -0.90100
C951        C  0.28845349  0.54550402  0.73944275     0.83800
O952        O  0.21339386  0.65409936  0.81654001    -0.68300
O953        O  0.21695050  0.58312514  0.66383642    -0.87600
C954        C  0.21670798  0.62625528  0.81780174     0.84600
C955        C  0.29882382  0.64166033  0.82706870     1.06200
H956        H  0.21814983  0.58566537  0.74283079     0.38000
O957        O  0.23547433  0.59483631  0.73310603    -1.10300
O958        O  0.25225353  0.63757270  0.69548815    -0.66900
Ni959      Ni  0.22309394  0.63567289  0.73234872     1.26300
O960        O  0.23885635  0.60796008  0.80182543    -0.67200
O961        O  0.18917908  0.62052366  0.70094136    -0.79400
C962        C  0.20446005  0.69959835  0.75858110     0.84000
O963        O  0.21009422  0.67651143  0.73286603    -0.66600
Ni964      Ni  0.24751403  0.56623378  0.68996561     1.27400
Ni965      Ni  0.26904982  0.60873745  0.76554489     1.26100
H966        H  0.27478526  0.65823485  0.75393904     0.38500
O967        O  0.05339212  0.95137316  0.78873382    -0.81400
O968        O  0.10750916  0.81549810  0.76527618    -0.66100
O969        O  0.09585486  0.89949692  0.76433026    -1.12700
C970        C  0.03284506  0.85948550  0.66807144     1.05500
O971        O  0.10871513  0.79401506  0.70922827    -0.79300
O972        O  0.11571708  0.84148660  0.68175839    -0.66900
Ni973      Ni  0.08851127  0.93190800  0.80628779     1.34900
C974        C  0.11581347  0.86955509  0.68054372     0.84200
O975        O  0.13385615  0.86762615  0.79978186    -0.79800
O976        O  0.12264741  0.91697105  0.82966437    -0.90100
C977        C  0.11586165  0.79373774  0.73936120     0.83800
O978        O  0.05810475  0.90975737  0.82516429    -0.68300
O979        O  0.05250871  0.83663646  0.66201616    -0.87600
C980        C  0.05447614  0.88086467  0.82176053     0.84600
C981        C  0.13753615  0.89118245  0.82550904     1.06200
H982        H  0.04975329  0.84060058  0.74015784     0.38000
O983        O  0.06903258  0.84771536  0.73136935    -1.10300
O984        O  0.09456180  0.88921346  0.69579083    -0.66900
Ni985      Ni  0.06268597  0.88982239  0.73083913     1.26300
O986        O  0.06926289  0.85935065  0.79973392    -0.67200
O987        O  0.02991214  0.87911772  0.69726785    -0.79400
C988        C  0.04608456  0.95243330  0.75889201     0.84000
O989        O  0.05590899  0.93208386  0.73246349    -0.66600
Ni990      Ni  0.08002833  0.81776706  0.68889067     1.27400
Ni991      Ni  0.10162211  0.85754764  0.76556759     1.26100
H992        H  0.11510641  0.90537857  0.75432728     0.38500
C993        C  0.99969203  0.53005841  0.76939014    -0.20800
C994        C  0.31095841  0.52129365  0.74432389    -0.07400
C995        C  0.30865893  0.48937673  0.72591789     0.13500
C996        C  0.33451449  0.96996206  0.73047241    -0.20900
C997        C  0.02370876  0.97676833  0.75446750    -0.07400
C998        C  0.02597270  0.00840617  0.77365147     0.13500
C999        C  0.04730569  0.51897875  0.80167397    -0.24200
H1000       H  0.00155528  0.55427575  0.78434410     0.14800
H1001       H  0.33404606  0.94576568  0.71529280     0.14800
C1002       C  0.28798303  0.97905511  0.69562905    -0.24200
H1003       H  0.04633077  0.54464231  0.81341141     0.05000
H1004       H  0.07586223  0.01340606  0.78836586     0.08200
H1005       H  0.04837479  0.00881619  0.82127837     0.08200
H1006       H  0.28362877  0.48719830  0.67916101     0.06600
H1007       H  0.25815471  0.48354591  0.71408407     0.08200
H1008       H  0.29035002  0.95347968  0.68383443     0.05000
C1009       C  0.15965028  0.77690038  0.77099914    -0.20800
C1010       C  0.13703510  0.76869080  0.74449017    -0.07400
C1011       C  0.13674182  0.73774605  0.72284882     0.13500
C1012       C  0.15929291  0.71614330  0.72806820    -0.20900
C1013       C  0.18223688  0.72439662  0.75433920    -0.07400
C1014       C  0.18226891  0.75536732  0.77621935     0.13500
C1015       C  0.20645466  0.76648954  0.80449101    -0.24200
H1016       H  0.16018282  0.80070614  0.78735844     0.14800
H1017       H  0.15865155  0.69237616  0.71162933     0.14800
C1018       C  0.11224602  0.72689874  0.69487462    -0.24200
H1019       H  0.20407757  0.79191035  0.81725303     0.05000
H1020       H  0.23127946  0.76210858  0.79393188     0.08200
H1021       H  0.20270173  0.75433014  0.82440071     0.08200
H1022       H  0.11597858  0.73893941  0.67486666     0.08200
H1023       H  0.08756199  0.73174307  0.70571961     0.08200
H1024       H  0.11419889  0.70142254  0.68224479     0.05000
C1025       C  0.31995441  0.85205437  0.86234817    -0.20800
C1026       C  0.33178615  0.85674568  0.89561207    -0.07400
C1027       C  0.02397059  0.87964138  0.90766086     0.13500
C1028       C  0.04229726  0.88559435  0.88147925    -0.20900
C1029       C  0.03441813  0.87222254  0.84714704    -0.07400
C1030       C  0.33842952  0.86002981  0.83730298     0.13500
C1031       C  0.32502958  0.85538912  0.80204215    -0.24200
H1032       H  0.29565930  0.84347113  0.85636930     0.14800
H1033       H  0.06288825  0.90101846  0.88780857     0.14800
C1034       C  0.03393223  0.89421186  0.94420080    -0.24200
H1035       H  0.30043773  0.84529636  0.79970625     0.05000
H1036       H  0.34082312  0.83920497  0.78298766     0.08200
H1037       H  0.32376925  0.87814028  0.79615811     0.08200
H1038       H  0.03677445  0.87577554  0.95735122     0.08200
H1039       H  0.01580745  0.91158633  0.95791978     0.08200
H1040       H  0.05727126  0.90661979  0.94572840     0.05000
C1041       C  0.33172964  0.84288902  0.62035543    -0.20800
C1042       C  0.01378609  0.86429952  0.63957959    -0.07400
C1043       C  0.01284691  0.89355954  0.63274926     0.13500
C1044       C  0.99178860  0.89809229  0.60825529    -0.20900
C1045       C  0.30857652  0.87591309  0.58819767    -0.07400
C1046       C  0.31236652  0.84598785  0.59340259     0.13500
C1047       C  0.29726221  0.81698785  0.57047195    -0.24200
H1048       H  0.33356897  0.82045525  0.62552315     0.14800
H1049       H  0.99064326  0.92121881  0.60473009     0.14800
C1050       C  0.03449811  0.92044336  0.64940356    -0.24200
H1051       H  0.30563010  0.79560533  0.57664912     0.05000
H1052       H  0.30390966  0.81457121  0.54346733     0.08200
H1053       H  0.27082752  0.81786992  0.57349816     0.08200
H1054       H  0.05078763  0.91520590  0.66811709     0.08200
H1055       H  0.01984772  0.94128181  0.66218170     0.08200
H1056       H  0.04967401  0.92621925  0.62957076     0.05000
C1057       C  0.17442990  0.85881421  0.89285263    -0.20800
C1058       C  0.20176109  0.87762632  0.90253990    -0.07400
C1059       C  0.20680365  0.90263998  0.88802664     0.13500
C1060       C  0.18491572  0.90726368  0.86360123    -0.20900
C1061       C  0.15861548  0.88729896  0.85298436    -0.07400
C1062       C  0.15288757  0.86325560  0.86856290     0.13500
C1063       C  0.12405517  0.84193007  0.86096692    -0.24200
H1064       H  0.16973222  0.84005062  0.90420195     0.14800
H1065       H  0.18891812  0.92588403  0.85188459     0.14800
C1066       C  0.23562944  0.92377166  0.89688501    -0.24200
H1067       H  0.13224913  0.81744382  0.84991350     0.05000
H1068       H  0.10689789  0.84767117  0.84316540     0.08200
H1069       H  0.11059970  0.84364950  0.88502027     0.08200
H1070       H  0.25814542  0.90977607  0.89076907     0.08200
H1071       H  0.23499753  0.93673380  0.92443760     0.08200
H1072       H  0.23606396  0.94127515  0.88226840     0.05000
C1073       C  0.16337188  0.91221990  0.62686766    -0.20800
C1074       C  0.18111721  0.88716198  0.60612673    -0.07400
C1075       C  0.18138653  0.85844514  0.61418918     0.13500
C1076       C  0.16060515  0.85417677  0.63926914    -0.20900
C1077       C  0.14042169  0.87821041  0.65822298    -0.07400
C1078       C  0.14344121  0.90836648  0.65336882     0.13500
C1079       C  0.12669962  0.93673702  0.67602065    -0.24200
H1080       H  0.16473707  0.93477739  0.62194171     0.14800
H1081       H  0.16030935  0.83140142  0.64374955     0.14800
C1082       C  0.20429272  0.83210390  0.59847599    -0.24200
H1083       H  0.13426614  0.95844122  0.67005080     0.05000
H1084       H  0.13266094  0.93933166  0.70315375     0.08200
H1085       H  0.10040918  0.93479913  0.67241513     0.08200
H1086       H  0.22062044  0.83745304  0.57971303     0.08200
H1087       H  0.19067152  0.81063229  0.58602348     0.08200
H1088       H  0.21945856  0.82740590  0.61879997     0.05000
C1089       C  0.01683841  0.66112135  0.86563324    -0.20800
C1090       C  0.31929947  0.63765052  0.85492950    -0.07400
C1091       C  0.31902474  0.60959409  0.86447536     0.13500
C1092       C  0.33988422  0.60616081  0.88973892    -0.20900
C1093       C  0.03094761  0.63362719  0.90776332    -0.07400
C1094       C  0.03779080  0.65702275  0.89129657     0.13500
C1095       C  0.06757851  0.67685773  0.89941474    -0.24200
H1096       H  0.02217250  0.67862400  0.85269155     0.14800
H1097       H  0.33928615  0.58437486  0.89648294     0.14800
C1098       C  0.29684948  0.58263504  0.84941208    -0.24200
H1099       H  0.06931152  0.69337412  0.88365612     0.05000
H1100       H  0.08939135  0.66178652  0.89419181     0.08200
H1101       H  0.06710793  0.69081250  0.92664522     0.08200
H1102       H  0.28019252  0.58704778  0.83053435     0.08200
H1103       H  0.28206261  0.57777714  0.87005392     0.08200
H1104       H  0.31125427  0.56147827  0.83697953     0.05000
C1105       C  0.28469238  0.63890147  0.63032187    -0.20800
C1106       C  0.29788153  0.63236026  0.65906720    -0.07400
C1107       C  0.00162282  0.63622382  0.66094496     0.13500
C1108       C  0.02084019  0.64433256  0.63646336    -0.20900
C1109       C  0.00717773  0.65023201  0.60753598    -0.07400
C1110       C  0.30453166  0.64422898  0.60466042     0.13500
C1111       C  0.28938603  0.64932977  0.57321795    -0.24200
H1112       H  0.25881439  0.63812898  0.62704898     0.14800
H1113       H  0.04677476  0.64453135  0.63902773     0.14800
C1114       C  0.01731998  0.62841089  0.69067454    -0.24200
H1115       H  0.26266910  0.64950289  0.57485646     0.05000
H1116       H  0.29658145  0.63034379  0.55028976     0.08200
H1117       H  0.29723432  0.67211061  0.57013899     0.08200
H1118       H  0.01220343  0.60384429  0.68981501     0.08200
H1119       H  0.00788506  0.64415194  0.71499717     0.08200
H1120       H  0.04387077  0.63123789  0.69030153     0.05000
C1121       C  0.14352028  0.60829413  0.86401474    -0.20800
C1122       C  0.15747073  0.60693311  0.89485132    -0.07400
C1123       C  0.19124784  0.60891981  0.89864064     0.13500
C1124       C  0.21016891  0.61315832  0.87180293    -0.20900
C1125       C  0.19604442  0.61611985  0.84178534    -0.07400
C1126       C  0.16244311  0.61340277  0.83758081     0.13500
C1127       C  0.14664847  0.61621743  0.80545136    -0.24200
H1128       H  0.11756754  0.60678402  0.86122373     0.14800
H1129       H  0.23598785  0.61586505  0.87496889     0.14800
C1130       C  0.20742253  0.60654552  0.93076235    -0.24200
H1131       H  0.12016348  0.61296039  0.80613481     0.05000
H1132       H  0.15659127  0.59818376  0.78304314     0.08200
H1133       H  0.15121770  0.63968171  0.80223151     0.08200
H1134       H  0.20055236  0.58432203  0.93594771     0.08200
H1135       H  0.20017262  0.62648851  0.95270917     0.08200
H1136       H  0.23408596  0.60695349  0.92850780     0.05000
C1137       C  0.18505059  0.60909487  0.61408126    -0.20800
C1138       C  0.17128113  0.60460825  0.64381300    -0.07400
C1139       C  0.13740049  0.60523431  0.64749265     0.13500
C1140       C  0.11826330  0.61161529  0.62196205    -0.20900
C1141       C  0.13223822  0.61871373  0.59369757    -0.07400
C1142       C  0.16599763  0.61677668  0.58930607     0.13500
C1143       C  0.18194534  0.62273532  0.55851886    -0.24200
H1144       H  0.21098650  0.60806844  0.61100812     0.14800
H1145       H  0.09233129  0.61252853  0.62489509     0.14800
C1146       C  0.12137987  0.59903946  0.67811157    -0.24200
H1147       H  0.20839705  0.61895767  0.55844316     0.05000
H1148       H  0.17766983  0.64719582  0.55832476     0.08200
H1149       H  0.17201410  0.60662596  0.53485778     0.08200
H1150       H  0.12783856  0.61747108  0.70167786     0.08200
H1151       H  0.12919248  0.57595255  0.68041778     0.08200
H1152       H  0.09473142  0.59881587  0.67593893     0.05000
C1153       C  0.33242599  0.51055020  0.96905188    -0.20800
C1154       C  0.01962524  0.52592134  0.99835861    -0.07400
C1155       C  0.99417997  0.53229315  0.52421365     0.13500
C1156       C  0.99134009  0.99656883  0.53233319    -0.20900
C1157       C  0.30372640  0.98350096  0.50081994    -0.07400
C1158       C  0.32712506  0.97933103  0.97102814     0.13500
C1159       C  0.32858177  0.95070658  0.94064593    -0.24200
H1160       H  0.33627811  0.51526073  0.94472365     0.14800
H1161       H  0.99057344  0.98899049  0.55528898     0.14800
C1162       C  0.98904263  0.56300136  0.55118064    -0.24200
H1163       H  0.29875046  0.47977397  0.91708950     0.05000
H1164       H  0.28976851  0.95715650  0.42957649     0.08200
H1165       H  0.33689657  0.93041866  0.94884940     0.08200
H1166       H  0.98358307  0.58159138  0.53887343     0.08200
H1167       H  0.00775209  0.57053189  0.06461166     0.08200
H1168       H  0.03471175  0.01823401  0.57886853     0.05000
C1169       C  0.17250398  0.71888658  0.98048421    -0.20800
C1170       C  0.14895157  0.72957408  0.50558081    -0.07400
C1171       C  0.14678996  0.76128287  0.52501458     0.13500
C1172       C  0.16884570  0.78278584  0.51873426    -0.20900
C1173       C  0.19237377  0.77213255  0.99410691    -0.07400
C1174       C  0.19518249  0.74035740  0.97523589     0.13500
C1175       C  0.22240716  0.72868525  0.95024010    -0.24200
H1176       H  0.17492238  0.69447611  0.96629948     0.14800
H1177       H  0.16659203  0.80722593  0.53278335     0.14800
C1178       C  0.12090023  0.77298567  0.55166586    -0.24200
H1179       H  0.22189433  0.70290177  0.93944704     0.05000
H1180       H  0.24578287  0.73615503  0.46070382     0.08200
H1181       H  0.22056983  0.73894139  0.92856635     0.08200
H1182       H  0.12409245  0.76255834  0.57306142     0.08200
H1183       H  0.09385568  0.76521649  0.03582644     0.08200
H1184       H  0.12180673  0.79873692  0.56266807     0.05000
O1185       O  0.37854156  0.05864549  0.46699514    -0.81400
O1186       O  0.44135245  0.19004183  0.48785610    -0.66100
O1187       O  0.42405050  0.10732793  0.49078099    -1.12700
C1188       C  0.36284596  0.15350044  0.08470688     1.05500
O1189       O  0.44778897  0.20905811  0.04163208    -0.79300
O1190       O  0.44964829  0.16167756  0.07045020    -0.66900
Ni1191     Ni  0.41592610  0.07484214  0.44940575     1.34900
C1192       C  0.44584590  0.13403525  0.07213976     0.84200
O1193       O  0.46448829  0.13584068  0.45326332    -0.79800
O1194       O  0.45223611  0.08634953  0.42600176    -0.90100
C1195       C  0.45353838  0.20966158  0.01114554     0.83800
O1196       O  0.38801829  0.09847059  0.42983796    -0.68300
O1197       O  0.38605735  0.17298135  0.09109011    -0.87600
C1198       C  0.38422313  0.12733671  0.43295490     0.84600
C1199       C  0.46882481  0.11093783  0.42932978     1.06200
H1200       H  0.38398434  0.16928612  0.01364584     0.38000
O1201       O  0.40246786  0.16020411  0.02155567    -1.10300
O1202       O  0.42229056  0.11700064  0.05813579    -0.66900
Ni1203     Ni  0.39194176  0.11901160  0.02266210     1.26300
O1204       O  0.39998583  0.14849500  0.45428775    -0.67200
O1205       O  0.35921506  0.13351738  0.05593186    -0.79400
C1206       C  0.36946710  0.05812679  0.49663393     0.84000
O1207       O  0.38055559  0.07738701  0.02160166    -0.66600
Ni1208     Ni  0.41651743  0.18870230  0.06350490     1.27400
Ni1209     Ni  0.43263303  0.14856506  0.48805440     1.26100
H1210       H  0.44251848  0.10064757  0.50120178     0.38500
O1211       O  0.55301773  0.29927082  0.46019935    -0.81400
O1212       O  0.61901229  0.43033208  0.48044728    -0.66100
O1213       O  0.59799386  0.34838753  0.48323308    -1.12700
C1214       C  0.53466636  0.39486341  0.07836270     1.05500
O1215       O  0.60924030  0.45960220  0.03553724    -0.79300
O1216       O  0.61835525  0.41115880  0.06164973    -0.66900
Ni1217     Ni  0.58883271  0.31678918  0.44158859     1.34900
C1218       C  0.61766079  0.38358915  0.06451479     0.84200
O1219       O  0.64238017  0.37524461  0.45052867    -0.79800
O1220       O  0.62340117  0.32998151  0.41741008    -0.90100
C1221       C  0.62165016  0.45720536  0.00637778     0.83800
O1222       O  0.55924722  0.34141669  0.42543298    -0.68300
O1223       O  0.55588818  0.41609272  0.08418390    -0.87600
C1224       C  0.56005417  0.36985498  0.42567311     0.84600
C1225       C  0.64322700  0.35254824  0.42367182     1.06200
H1226       H  0.55449584  0.41215539  0.00303174     0.38000
O1227       O  0.57236969  0.40469450  0.01362783    -1.10300
O1228       O  0.59525845  0.36448865  0.05141110    -0.66900
Ni1229     Ni  0.56361968  0.36330999  0.01598009     1.26300
O1230       O  0.57941641  0.38942938  0.44413611    -0.67200
O1231       O  0.53019229  0.37645397  0.04889721    -0.79400
C1232       C  0.54511692  0.29915021  0.49024370     0.84000
O1233       O  0.55434386  0.32166659  0.01600257    -0.66600
Ni1234     Ni  0.58212983  0.43502180  0.05622772     1.27400
Ni1235     Ni  0.60796301  0.38933233  0.48132090     1.26100
H1236       H  0.61605002  0.34081715  0.49345714     0.38500
O1237       O  0.55016623  0.19813900  0.29182678    -0.81400
O1238       O  0.60468594  0.06428573  0.26716187    -0.66100
O1239       O  0.59492009  0.14859685  0.26691701    -1.12700
C1240       C  0.53117431  0.10735192  0.17037698     1.05500
O1241       O  0.61294267  0.04679107  0.21111682    -0.79300
O1242       O  0.61588163  0.09266049  0.18012642    -0.66900
Ni1243     Ni  0.58768855  0.18111890  0.30858563     1.34900
C1244       C  0.61487207  0.12114555  0.18068143     0.84200
O1245       O  0.62938392  0.11635059  0.30511358    -0.79800
O1246       O  0.62411573  0.16777912  0.33039086    -0.90100
C1247       C  0.61672321  0.04464485  0.24131699     0.83800
O1248       O  0.55993622  0.15885456  0.33049852    -0.68300
O1249       O  0.55155798  0.08493415  0.16385070    -0.87600
C1250       C  0.55298281  0.13024383  0.32506209     0.84600
C1251       C  0.63585575  0.14094986  0.32873284     1.06200
H1252       H  0.54958809  0.08964075  0.23956108     0.38000
O1253       O  0.56926106  0.09730128  0.23213758    -1.10300
O1254       O  0.59404374  0.14031065  0.19779730    -0.66900
Ni1255     Ni  0.56241899  0.13944561  0.23259385     1.26300
O1256       O  0.56472598  0.10851775  0.30057125    -0.67200
O1257       O  0.53004622  0.12872501  0.19857294    -0.79400
C1258       C  0.54327464  0.20060625  0.26235557     0.84000
O1259       O  0.55503525  0.18197773  0.23562447    -0.66600
Ni1260     Ni  0.58191746  0.06795090  0.19003205     1.27400
Ni1261     Ni  0.59951715  0.10667525  0.26846166     1.26100
H1262       H  0.61456225  0.15397695  0.25715841     0.38500
O1263       O  0.38501050  0.44812747  0.28908406    -0.81400
O1264       O  0.44487628  0.31553120  0.26648734    -0.66100
O1265       O  0.43090815  0.39921516  0.26505474    -1.12700
C1266       C  0.37144124  0.35736263  0.16726090     1.05500
O1267       O  0.44853403  0.29460742  0.21055335    -0.79300
O1268       O  0.45493339  0.34325828  0.18473717    -0.66900
Ni1269     Ni  0.42258531  0.43172813  0.30647625     1.34900
C1270       C  0.45350149  0.37105717  0.18274491     0.84200
O1271       O  0.46856284  0.36880214  0.30202256    -0.79800
O1272       O  0.45898605  0.41934419  0.32902344    -0.90100
C1273       C  0.45435668  0.29394972  0.24085334     0.83800
O1274       O  0.39511323  0.40857283  0.32749748    -0.68300
O1275       O  0.39256307  0.33577156  0.16166462    -0.87600
C1276       C  0.39074009  0.37957657  0.32278108     0.84600
C1277       C  0.47304813  0.39334183  0.32637504     1.06200
H1278       H  0.38728081  0.33854819  0.23915043     0.38000
O1279       O  0.40646051  0.34664274  0.23125926    -1.10300
O1280       O  0.43090579  0.38960052  0.19678517    -0.66900
Ni1281     Ni  0.39856122  0.38862961  0.23087884     1.26300
O1282       O  0.40441759  0.35838676  0.29936800    -0.67200
O1283       O  0.36687499  0.37671312  0.19637199    -0.79400
C1284       C  0.37833827  0.45006565  0.25935995     0.84000
O1285       O  0.38991493  0.43085224  0.23291072    -0.66600
Ni1286     Ni  0.41992536  0.31764046  0.18927726     1.27400
Ni1287     Ni  0.43778562  0.35752259  0.26656363     1.26100
H1288       H  0.45015858  0.40549819  0.25541250     0.38500
C1289       C  0.33874028  0.03266317  0.26980817    -0.20800
C1290       C  0.63833987  0.02023740  0.24671422    -0.07400
C1291       C  0.63578172  0.98862947  0.22758036     0.13500
C1292       C  0.66447368  0.46885997  0.23098478    -0.20900
C1293       C  0.35511701  0.47410787  0.25500218    -0.07400
C1294       C  0.35245735  0.50420256  0.27840504     0.13500
C1295       C  0.38833172  0.02273825  0.30019703    -0.24200
H1296       H  0.34069230  0.05705637  0.28410462     0.14800
H1297       H  0.66328882  0.44480259  0.21548185     0.14800
C1298       C  0.61901306  0.48020660  0.19609872    -0.24200
H1299       H  0.38734439  0.04846416  0.31141969     0.05000
H1300       H  0.39856695  0.51110478  0.30339909     0.08200
H1301       H  0.36632329  0.49972881  0.32759239     0.08200
H1302       H  0.61019951  0.98835999  0.18167348     0.06600
H1303       H  0.58517813  0.98340966  0.21626595     0.08200
H1304       H  0.62061743  0.45466196  0.18375948     0.05000
C1305       C  0.49162417  0.27435266  0.27763722    -0.20800
C1306       C  0.47484572  0.26844342  0.24660505    -0.07400
C1307       C  0.47968550  0.23936109  0.22162856     0.13500
C1308       C  0.50190232  0.21794370  0.22792839    -0.20900
C1309       C  0.51942043  0.22431955  0.25851630    -0.07400
C1310       C  0.51361842  0.25279114  0.28404539     0.13500
C1311       C  0.53106834  0.26132664  0.31771519    -0.24200
H1312       H  0.48824969  0.29651651  0.29683003     0.14800
H1313       H  0.50558245  0.19586290  0.20861598     0.14800
C1314       C  0.46140522  0.23017523  0.18844010    -0.24200
H1315       H  0.52460071  0.28514727  0.33373144     0.05000
H1316       H  0.55748847  0.26072627  0.31321476     0.08200
H1317       H  0.52453090  0.24483476  0.33247262     0.08200
H1318       H  0.46847275  0.24523424  0.17221012     0.08200
H1319       H  0.43510034  0.23219332  0.19368866     0.08200
H1320       H  0.46652853  0.20567647  0.17348494     0.05000
C1321       C  0.65436628  0.34797304  0.36335177    -0.20800
C1322       C  0.66600562  0.35460452  0.39691604    -0.07400
C1323       C  0.36030385  0.37566411  0.40801556     0.13500
C1324       C  0.37862520  0.38257045  0.38231864    -0.20900
C1325       C  0.37079734  0.37015307  0.34780905    -0.07400
C1326       C  0.67198696  0.35629793  0.33799503     0.13500
C1327       C  0.65843104  0.35014642  0.30257813    -0.24200
H1328       H  0.63066150  0.33782607  0.35739235     0.14800
H1329       H  0.39920081  0.39795095  0.38917566     0.14800
C1330       C  0.37047467  0.38910162  0.44469162    -0.24200
H1331       H  0.63448882  0.33873901  0.30044652     0.05000
H1332       H  0.67491511  0.33455248  0.28379582     0.08200
H1333       H  0.65562257  0.37251482  0.29609177     0.08200
H1334       H  0.37292038  0.37008675  0.45708044     0.08200
H1335       H  0.35272219  0.40661387  0.45894785     0.08200
H1336       H  0.39407097  0.40111639  0.44654951     0.05000
C1337       C  0.66681949  0.34080280  0.11647447    -0.20800
C1338       C  0.35279433  0.36122147  0.13824517    -0.07400
C1339       C  0.35304799  0.38959746  0.12951550     0.13500
C1340       C  0.33264612  0.39327010  0.10406920    -0.20900
C1341       C  0.64232543  0.37524106  0.08673365    -0.07400
C1342       C  0.64686983  0.34479412  0.09025484     0.13500
C1343       C  0.63166243  0.31633684  0.06643653    -0.24200
H1344       H  0.66945502  0.31787265  0.12024683     0.14800
H1345       H  0.33248862  0.41572303  0.09880689     0.14800
C1346       C  0.37504634  0.41641072  0.14547916    -0.24200
H1347       H  0.64035641  0.29449780  0.07135582     0.05000
H1348       H  0.63784170  0.31506660  0.03958936     0.08200
H1349       H  0.60522777  0.31703535  0.06987315     0.08200
H1350       H  0.38975597  0.41220752  0.16597432     0.08200
H1351       H  0.36075264  0.43800807  0.15613319     0.08200
H1352       H  0.39164087  0.42031059  0.12568043     0.05000
C1353       C  0.50914655  0.36174437  0.39427928    -0.20800
C1354       C  0.53701664  0.37974894  0.40310321    -0.07400
C1355       C  0.54248557  0.40463634  0.38853325     0.13500
C1356       C  0.52064504  0.40951094  0.36420262    -0.20900
C1357       C  0.49382224  0.39010604  0.35424775    -0.07400
C1358       C  0.48747901  0.36662339  0.37049053     0.13500
C1359       C  0.45786438  0.34632767  0.36425545    -0.24200
H1360       H  0.50407883  0.34329825  0.40601108     0.14800
H1361       H  0.52506844  0.42778463  0.35208261     0.14800
C1362       C  0.57161870  0.42532346  0.39733860    -0.24200
H1363       H  0.46501635  0.32147716  0.35381007     0.05000
H1364       H  0.44072364  0.35212219  0.34656780     0.08200
H1365       H  0.44481616  0.34917742  0.38877641     0.08200
H1366       H  0.59390557  0.41098010  0.39123646     0.08200
H1367       H  0.57108731  0.43826805  0.42490036     0.08200
H1368       H  0.57237043  0.44282783  0.38273115     0.05000
C1369       C  0.49874742  0.41484052  0.12871148    -0.20800
C1370       C  0.51636163  0.39000450  0.10737579    -0.07400
C1371       C  0.51748747  0.36121905  0.11524421     0.13500
C1372       C  0.49780540  0.35669982  0.14099263    -0.20900
C1373       C  0.47759933  0.38039189  0.16047524    -0.07400
C1374       C  0.47974453  0.41064149  0.15573357     0.13500
C1375       C  0.46338508  0.43877736  0.17931610    -0.24200
H1376       H  0.49957099  0.43747946  0.12392860     0.14800
H1377       H  0.49815346  0.33386518  0.14532891     0.14800
C1378       C  0.54003940  0.33491770  0.09846068    -0.24200
H1379       H  0.47035666  0.46063774  0.17333596     0.05000
H1380       H  0.47040720  0.44109362  0.20611341     0.08200
H1381       H  0.43697630  0.43685033  0.17689791     0.08200
H1382       H  0.55516314  0.34020995  0.07882665     0.08200
H1383       H  0.52621802  0.31337126  0.08680857     0.08200
H1384       H  0.55635775  0.33035032  0.11797249     0.05000
C1385       C  0.33967394  0.16623518  0.37349400    -0.20800
C1386       C  0.65675343  0.13725763  0.35653429    -0.07400
C1387       C  0.65011316  0.11420451  0.37334907     0.13500
C1388       C  0.67177645  0.10947174  0.39741492    -0.20900
C1389       C  0.36022410  0.13545853  0.40976973    -0.07400
C1390       C  0.36099305  0.16310567  0.39918757     0.13500
C1391       C  0.38477110  0.18879157  0.41368276    -0.24200
H1392       H  0.34049007  0.18699150  0.36479882     0.14800
H1393       H  0.66643047  0.09143307  0.40964341     0.14800
C1394       C  0.62023882  0.09421559  0.36732937    -0.24200
H1395       H  0.38234810  0.20819061  0.40184287     0.05000
H1396       H  0.40972978  0.17953539  0.40888373     0.08200
H1397       H  0.38061302  0.19859507  0.44155949     0.08200
H1398       H  0.60280869  0.10041248  0.35005861     0.08200
H1399       H  0.60750753  0.09691345  0.39200256     0.08200
H1400       H  0.62714757  0.06933385  0.35642589     0.05000
C1401       C  0.62410753  0.14093007  0.13089922    -0.20800
C1402       C  0.63721557  0.13167077  0.15810746    -0.07400
C1403       C  0.33408582  0.13881216  0.16628759     0.13500
C1404       C  0.35378479  0.14704187  0.14216338    -0.20900
C1405       C  0.34066713  0.15199431  0.11251089    -0.07400
C1406       C  0.64389397  0.14638665  0.10521751     0.13500
C1407       C  0.62877810  0.15544991  0.07593738    -0.24200
H1408       H  0.59817850  0.14253693  0.12894913     0.14800
H1409       H  0.37967789  0.14776492  0.14543133     0.14800
C1410       C  0.34917581  0.13205251  0.19691659    -0.24200
H1411       H  0.60219229  0.15774962  0.07885248     0.05000
H1412       H  0.63399931  0.13744601  0.05151624     0.08200
H1413       H  0.63854283  0.17823231  0.07476329     0.08200
H1414       H  0.34485210  0.10741605  0.19631906     0.08200
H1415       H  0.33859353  0.14771115  0.22068060     0.08200
H1416       H  0.37562919  0.13581741  0.19753225     0.05000
C1417       C  0.48332269  0.10108028  0.36825048    -0.20800
C1418       C  0.49274840  0.11168233  0.40265714    -0.07400
C1419       C  0.52300501  0.12624717  0.41081104     0.13500
C1420       C  0.54207849  0.13155243  0.38463771    -0.20900
C1421       C  0.53210654  0.12208015  0.35048539    -0.07400
C1422       C  0.50268831  0.10618253  0.34200285     0.13500
C1423       C  0.49095481  0.09621047  0.30569944    -0.24200
H1424       H  0.45998948  0.09016369  0.36205613     0.14800
H1425       H  0.56498611  0.14335322  0.39086579     0.14800
C1426       C  0.53572999  0.13551411  0.44682044    -0.24200
H1427       H  0.46690546  0.08502019  0.30371697     0.05000
H1428       H  0.50806657  0.07914245  0.28946480     0.08200
H1429       H  0.48901245  0.11686164  0.29580275     0.08200
H1430       H  0.53602779  0.11486851  0.45682989     0.08200
H1431       H  0.52060017  0.15407738  0.46368812     0.08200
H1432       H  0.56068845  0.14464033  0.44796018     0.05000
C1433       C  0.52170085  0.11413502  0.11316263    -0.20800
C1434       C  0.50882130  0.10974708  0.14331224    -0.07400
C1435       C  0.47511292  0.11037521  0.14816223     0.13500
C1436       C  0.45506440  0.11605119  0.12301443    -0.20900
C1437       C  0.46799372  0.12253042  0.09397976    -0.07400
C1438       C  0.50168768  0.12123459  0.08872037     0.13500
C1439       C  0.51651669  0.12747699  0.05754393    -0.24200
H1440       H  0.54759457  0.11351457  0.10953743     0.14800
H1441       H  0.42920270  0.11709381  0.12689852     0.14800
C1442       C  0.46027012  0.10531037  0.17991173    -0.24200
H1443       H  0.54312205  0.12463791  0.05704666     0.05000
H1444       H  0.51110571  0.15172287  0.05724987     0.08200
H1445       H  0.50666316  0.11091663  0.03414115     0.08200
H1446       H  0.46790506  0.12403766  0.20273048     0.08200
H1447       H  0.46799892  0.08232638  0.18258492     0.08200
H1448       H  0.43353833  0.10564394  0.17904297     0.05000
C1449       C  0.69234685  0.99129383  0.47078340    -0.20800
C1450       C  0.34653777  0.03311217  0.49945866    -0.07400
C1451       C  0.32754251  0.03440361  0.02640359     0.13500
C1452       C  0.32163877  0.49860296  0.03138521    -0.20900
C1453       C  0.64149362  0.48360949  0.00172697    -0.07400
C1454       C  0.66042670  0.47996751  0.47084478     0.13500
C1455       C  0.66016775  0.45215880  0.43953853    -0.24200
H1456       H  0.71114562  0.98759111  0.45150798     0.14800
H1457       H  0.31793650  0.49403243  0.05579632     0.14800
C1458       C  0.32572040  0.06356599  0.05609966    -0.24200
H1459       H  0.69821000  0.93629991  0.42756487     0.05000
H1460       H  0.63552622  0.44954152  0.93033814     0.08200
H1461       H  0.66885429  0.43113994  0.44608318     0.08200
H1462       H  0.31925699  0.08379090  0.04675534     0.08200
H1463       H  0.35753503  0.06147894  0.57183111     0.08200
H1464       H  0.35301403  0.53094023  0.08424503     0.05000
C1465       C  0.49562290  0.22516513  0.47913938    -0.20800
C1466       C  0.47557508  0.23388838  0.00531686    -0.07400
C1467       C  0.47618428  0.26488032  0.02694397     0.13500
C1468       C  0.49881905  0.28596368  0.02071460    -0.20900
C1469       C  0.52120492  0.27611138  0.49505761    -0.07400
C1470       C  0.51905692  0.24544907  0.47283003     0.13500
C1471       C  0.54175949  0.23347530  0.44296577    -0.24200
H1472       H  0.49418928  0.20166349  0.46221657     0.14800
H1473       H  0.49829020  0.30999816  0.03637307     0.14800
C1474       C  0.45260499  0.27630360  0.05607286    -0.24200
H1475       H  0.53780804  0.20834938  0.42987085     0.05000
H1476       H  0.57055091  0.23767160  0.95565922     0.08200
H1477       H  0.53796237  0.24643294  0.42380339     0.08200
H1478       H  0.45673946  0.26402715  0.07578188     0.08200
H1479       H  0.42820445  0.27366817  0.54991377     0.08200
H1480       H  0.45529850  0.30167941  0.06874780     0.05000
O1481       O  0.37898591  0.05832206  0.96539416    -0.81400
O1482       O  0.44273080  0.18901257  0.98551414    -0.66100
O1483       O  0.42524193  0.10634106  0.98904480    -1.12700
C1484       C  0.36026983  0.15459209  0.58565857     1.05500
O1485       O  0.44626952  0.21003971  0.54393153    -0.79300
O1486       O  0.44677730  0.16333001  0.57388632    -0.66900
Ni1487     Ni  0.41736219  0.07337213  0.94813848     1.34900
C1488       C  0.44310631  0.13551350  0.57508073     0.84200
O1489       O  0.46498736  0.13438372  0.95060878    -0.79800
O1490       O  0.45486978  0.08386743  0.92565439    -0.90100
C1491       C  0.45222183  0.21055711  0.51346090     0.83800
O1492       O  0.39070354  0.09671503  0.92676650    -0.68300
O1493       O  0.38294157  0.17463354  0.59222651    -0.87600
C1494       C  0.38591634  0.12554390  0.93032869     0.84600
C1495       C  0.47068223  0.10879599  0.92811865     1.06200
H1496       H  0.38251473  0.17006373  0.51488670     0.38000
O1497       O  0.40090755  0.16115445  0.52316112    -1.10300
O1498       O  0.42024947  0.11810636  0.55998418    -0.66900
Ni1499     Ni  0.39039127  0.11996590  0.52410941     1.26300
O1500       O  0.40050361  0.14704800  0.95254223    -0.67200
O1501       O  0.35723498  0.13432092  0.55697059    -0.79400
C1502       C  0.37052290  0.05735799  0.99508529     0.84000
O1503       O  0.37916231  0.07839333  0.52308411    -0.66600
Ni1504     Ni  0.41415946  0.19005713  0.56526372     1.27400
Ni1505     Ni  0.43371369  0.14745187  0.98591310     1.26100
H1506       H  0.44386291  0.09988028  0.99942320     0.38500
O1507       O  0.55366756  0.30053364  0.95993340    -0.81400
O1508       O  0.61866223  0.43281597  0.98180024    -0.66100
O1509       O  0.59739323  0.35070913  0.98344973    -1.12700
C1510       C  0.53432195  0.39310943  0.57748994     1.05500
O1511       O  0.60938764  0.45725861  0.53411553    -0.79300
O1512       O  0.61780402  0.41016321  0.56254011    -0.66900
Ni1513     Ni  0.58818740  0.31982185  0.94134028     1.34900
C1514       C  0.61729765  0.38269297  0.56570734     0.84200
O1515       O  0.64252892  0.37795317  0.95164946    -0.79800
O1516       O  0.62163002  0.33450355  0.91692992    -0.90100
C1517       C  0.62190092  0.45482577  0.50497655     0.83800
O1518       O  0.55743771  0.34485092  0.92738672    -0.68300
O1519       O  0.55483748  0.41498676  0.58312143    -0.87600
C1520       C  0.55929999  0.37305864  0.92690357     0.84600
C1521       C  0.64232041  0.35632728  0.92384620     1.06200
H1522       H  0.55468468  0.40929555  0.50207238     0.38000
O1523       O  0.57269786  0.40226567  0.51286364    -1.10300
O1524       O  0.59574960  0.36295160  0.55162230    -0.66900
Ni1525     Ni  0.56434517  0.36098386  0.51576476     1.26300
O1526       O  0.57946819  0.39219036  0.94471516    -0.67200
O1527       O  0.53073154  0.37389087  0.54835635    -0.79400
C1528       C  0.54509301  0.30066152  0.98988710     0.84000
O1529       O  0.55567739  0.31943119  0.51623775    -0.66600
Ni1530     Ni  0.58175115  0.43330067  0.55510266     1.27400
Ni1531     Ni  0.60767549  0.39180395  0.98216854     1.26100
H1532       H  0.61536340  0.34281264  0.99347743     0.38500
O1533       O  0.54847352  0.19942119  0.79273990    -0.81400
O1534       O  0.60900202  0.06637390  0.76608988    -0.66100
O1535       O  0.59440456  0.15060972  0.76713826    -1.12700
C1536       C  0.52860991  0.10778253  0.67253853     1.05500
O1537       O  0.61380038  0.04823306  0.70967283    -0.79300
O1538       O  0.61393517  0.09441401  0.67902806    -0.66900
Ni1539     Ni  0.58618057  0.18237172  0.80937118     1.34900
C1540       C  0.61221794  0.12291809  0.67977933     0.84200
O1541       O  0.63269948  0.11929517  0.80348751    -0.79800
O1542       O  0.62257880  0.16941412  0.83163200    -0.90100
C1543       C  0.61960825  0.04640048  0.73963988     0.83800
O1544       O  0.55867691  0.15872008  0.82981016    -0.68300
O1545       O  0.54938816  0.08573825  0.66528548    -0.87600
C1546       C  0.55456515  0.12967362  0.82499238     0.84600
C1547       C  0.63687206  0.14343138  0.82854607     1.06200
H1548       H  0.55085090  0.09033601  0.74129283     0.38000
O1549       O  0.56980941  0.09840947  0.73295983    -1.10300
O1550       O  0.59161039  0.14184573  0.69778413    -0.66900
Ni1551     Ni  0.56116501  0.14038526  0.73363451     1.26300
O1552       O  0.56834310  0.10869070  0.80127701    -0.67200
O1553       O  0.52781394  0.12889990  0.70086989    -0.79400
C1554       C  0.54089041  0.20154513  0.76329754     0.84000
O1555       O  0.55220827  0.18264528  0.73650854    -0.66600
Ni1556     Ni  0.58124956  0.06917833  0.69022022     1.27400
Ni1557     Ni  0.60150958  0.10867119  0.76796159     1.26100
H1558       H  0.61331605  0.15710777  0.75711326     0.38500
O1559       O  0.38924158  0.45430866  0.78839222    -0.81400
O1560       O  0.44571616  0.31888009  0.76705458    -0.66100
O1561       O  0.43175807  0.40230526  0.76412831    -1.12700
C1562       C  0.36657204  0.35939082  0.67048572     1.05500
O1563       O  0.44515770  0.29598749  0.71140043    -0.79300
O1564       O  0.45060291  0.34299419  0.68240950    -0.66900
Ni1565     Ni  0.42447279  0.43509098  0.80589194     1.34900
C1566       C  0.45003116  0.37089757  0.68058928     0.84200
O1567       O  0.47166828  0.37185525  0.79964073    -0.79800
O1568       O  0.45863452  0.42070038  0.82956499    -0.90100
C1569       C  0.45308447  0.29624076  0.74152556     0.83800
O1570       O  0.39403162  0.41291715  0.82466610    -0.68300
O1571       O  0.38693343  0.33708953  0.66427477    -0.87600
C1572       C  0.39120674  0.38406839  0.82201707     0.84600
C1573       C  0.47454328  0.39551146  0.82537547     1.06200
H1574       H  0.38657539  0.34244743  0.74269202     0.38000
O1575       O  0.40535280  0.34966110  0.73314838    -1.10300
O1576       O  0.42843403  0.39032950  0.69555364    -0.66900
Ni1577     Ni  0.39765022  0.39134102  0.73175632     1.26300
O1578       O  0.40711946  0.36272170  0.80101392    -0.67200
O1579       O  0.36393786  0.37933043  0.69948655    -0.79400
C1580       C  0.38033487  0.45419933  0.75866009     0.84000
O1581       O  0.38938435  0.43323959  0.73234420    -0.66600
Ni1582     Ni  0.41563282  0.31911382  0.69098251     1.27400
Ni1583     Ni  0.43877571  0.36064672  0.76624931     1.26100
H1584       H  0.45047752  0.40836535  0.75341668     0.38500
C1585       C  0.33448410  0.03157725  0.77101161    -0.20800
C1586       C  0.64139441  0.02153537  0.74404323    -0.07400
C1587       C  0.63994001  0.99039238  0.72306435     0.13500
C1588       C  0.66476682  0.47002593  0.73514122    -0.20900
C1589       C  0.35700609  0.47801869  0.75459233    -0.07400
C1590       C  0.35908984  0.50983548  0.77329924     0.13500
C1591       C  0.38096733  0.02221503  0.80586835    -0.24200
H1592       H  0.33483319  0.05566894  0.78655709     0.14800
H1593       H  0.66223046  0.44551672  0.72157760     0.14800
C1594       C  0.61496803  0.47988435  0.70515556    -0.24200
H1595       H  0.37815234  0.04763399  0.81838684     0.05000
H1596       H  0.40955611  0.51592856  0.78529275     0.08200
H1597       H  0.38413489  0.51151032  0.81990328     0.08200
H1598       H  0.61883219  0.99191443  0.67541776     0.06600
H1599       H  0.59048894  0.98552025  0.70672309     0.08200
H1600       H  0.61554888  0.45407293  0.69463392     0.05000
C1601       C  0.48900740  0.27545556  0.77884279    -0.20800
C1602       C  0.47327799  0.27033984  0.74722533    -0.07400
C1603       C  0.47875005  0.24157526  0.72185848     0.13500
C1604       C  0.50039243  0.21977169  0.72842749    -0.20900
C1605       C  0.51704935  0.22546336  0.75951446    -0.07400
C1606       C  0.51064491  0.25360485  0.78537488     0.13500
C1607       C  0.52706927  0.26151990  0.81960909    -0.24200
H1608       H  0.48506620  0.29721889  0.79854029     0.14800
H1609       H  0.50446466  0.19797634  0.70878425     0.14800
C1610       C  0.46203798  0.23319160  0.68774527    -0.24200
H1611       H  0.52016010  0.28508323  0.83596623     0.05000
H1612       H  0.55360530  0.26123427  0.81601840     0.08200
H1613       H  0.52008339  0.24449665  0.83354145     0.08200
H1614       H  0.46993250  0.24901351  0.67268980     0.08200
H1615       H  0.43552893  0.23477002  0.69161728     0.08200
H1616       H  0.46778856  0.20900389  0.67225200     0.05000
C1617       C  0.65248745  0.35519525  0.86423439    -0.20800
C1618       C  0.66500031  0.35846642  0.89697045    -0.07400
C1619       C  0.35574304  0.38583350  0.90689910     0.13500
C1620       C  0.37429290  0.39228383  0.88119047    -0.20900
C1621       C  0.37053728  0.37532508  0.84694657    -0.07400
C1622       C  0.67132552  0.36185222  0.83867912     0.13500
C1623       C  0.65701219  0.35937332  0.80422593    -0.24200
H1624       H  0.62743586  0.34884895  0.85913214     0.14800
H1625       H  0.39213527  0.41067924  0.88789234     0.14800
C1626       C  0.36230980  0.40411219  0.94347014    -0.24200
H1627       H  0.63149895  0.35171002  0.80282364     0.05000
H1628       H  0.67089246  0.34212706  0.78415744     0.08200
H1629       H  0.65790530  0.38243877  0.79903796     0.08200
H1630       H  0.36639545  0.38781748  0.95911970     0.08200
H1631       H  0.34201876  0.42004934  0.95426951     0.08200
H1632       H  0.38410070  0.41889268  0.94553805     0.05000
C1633       C  0.66593289  0.34126005  0.61956107    -0.20800
C1634       C  0.34642334  0.36321891  0.64227845    -0.07400
C1635       C  0.34493012  0.39187791  0.63412973     0.13500
C1636       C  0.32417899  0.39497564  0.60868239    -0.20900
C1637       C  0.64120796  0.37511718  0.58923003    -0.07400
C1638       C  0.64626976  0.34480143  0.59292048     0.13500
C1639       C  0.63205747  0.31597863  0.56872877    -0.24200
H1640       H  0.66901682  0.31836101  0.62329485     0.14800
H1641       H  0.32296964  0.41757989  0.60384262     0.14800
C1642       C  0.36571033  0.41961188  0.65028015    -0.24200
H1643       H  0.64101454  0.29435208  0.57393827     0.05000
H1644       H  0.63881994  0.31479879  0.54204823     0.08200
H1645       H  0.60555175  0.31609599  0.57140849     0.08200
H1646       H  0.38221814  0.41541137  0.66937499     0.08200
H1647       H  0.35035480  0.44011593  0.66248909     0.08200
H1648       H  0.38066885  0.42532880  0.63025542     0.05000
C1649       C  0.50769368  0.36703007  0.89697027    -0.20800
C1650       C  0.53690044  0.38308986  0.90394476    -0.07400
C1651       C  0.54469771  0.40538312  0.88639287     0.13500
C1652       C  0.52349420  0.40981782  0.86131975    -0.20900
C1653       C  0.49522654  0.39221620  0.85325942    -0.07400
C1654       C  0.48694712  0.37106564  0.87194941     0.13500
C1655       C  0.45642702  0.35217446  0.86667703    -0.24200
H1656       H  0.50113503  0.35043749  0.91076233     0.14800
H1657       H  0.52945591  0.42628935  0.84721513     0.14800
C1658       C  0.57563027  0.42359760  0.89283048    -0.24200
H1659       H  0.46247607  0.32691330  0.85917704     0.05000
H1660       H  0.44095034  0.35654351  0.84685211     0.08200
H1661       H  0.44225881  0.35796765  0.89082821     0.08200
H1662       H  0.59654091  0.40735781  0.88790408     0.08200
H1663       H  0.57609292  0.43853674  0.91965954     0.08200
H1664       H  0.57813966  0.43909621  0.87598873     0.05000
C1665       C  0.49665203  0.41345228  0.62608152    -0.20800
C1666       C  0.51538354  0.38871638  0.60631825    -0.07400
C1667       C  0.51639077  0.36035405  0.61511613     0.13500
C1668       C  0.49560305  0.35606647  0.64018727    -0.20900
C1669       C  0.47442879  0.37967013  0.65812592    -0.07400
C1670       C  0.47648754  0.40955139  0.65236901     0.13500
C1671       C  0.45828744  0.43758208  0.67369632    -0.24200
H1672       H  0.49736228  0.43574038  0.62046627     0.14800
H1673       H  0.49600171  0.33358713  0.64538087     0.14800
C1674       C  0.53997964  0.33442848  0.60010792    -0.24200
H1675       H  0.46504410  0.45920087  0.66708032     0.05000
H1676       H  0.46370560  0.44124733  0.70114547     0.08200
H1677       H  0.43217628  0.43435050  0.66932132     0.08200
H1678       H  0.55566435  0.33946779  0.58068160     0.08200
H1679       H  0.52698626  0.31234568  0.58856337     0.08200
H1680       H  0.55567294  0.33094807  0.62066530     0.05000
C1681       C  0.34145882  0.16363952  0.87006606    -0.20800
C1682       C  0.65753267  0.13996223  0.85673988    -0.07400
C1683       C  0.65132366  0.11622981  0.87270169     0.13500
C1684       C  0.67215497  0.11224516  0.89780761    -0.20900
C1685       C  0.36197396  0.13326490  0.90679986    -0.07400
C1686       C  0.36311440  0.16047957  0.89547181     0.13500
C1687       C  0.38773853  0.18560655  0.90884210    -0.24200
H1688       H  0.34247049  0.18416791  0.86097522     0.14800
H1689       H  0.66702038  0.09363771  0.90926712     0.14800
C1690       C  0.62278641  0.09456171  0.86465178    -0.24200
H1691       H  0.38584648  0.20452782  0.89623688     0.05000
H1692       H  0.41237604  0.17553003  0.90399131     0.08200
H1693       H  0.38404341  0.19625058  0.93666499     0.08200
H1694       H  0.60608976  0.09968195  0.84613254     0.08200
H1695       H  0.60871863  0.09652362  0.88839136     0.08200
H1696       H  0.63135893  0.07011465  0.85430474     0.05000
C1697       C  0.62027848  0.13907212  0.62732919    -0.20800
C1698       C  0.63371539  0.13359582  0.65655588    -0.07400
C1699       C  0.33184916  0.13632581  0.66522008     0.13500
C1700       C  0.35146601  0.14558734  0.64179257    -0.20900
C1701       C  0.33822983  0.15260514  0.61331345    -0.07400
C1702       C  0.63988572  0.14355087  0.60095603     0.13500
C1703       C  0.62438377  0.14854202  0.56964384    -0.24200
H1704       H  0.59435403  0.13843258  0.62445610     0.14800
H1705       H  0.37734878  0.14555271  0.64458462     0.14800
C1706       C  0.34718774  0.12689384  0.69418048    -0.24200
H1707       H  0.59769038  0.14907527  0.57175555     0.05000
H1708       H  0.63109346  0.12935976  0.54672332     0.08200
H1709       H  0.63241296  0.17113364  0.56618487     0.08200
H1710       H  0.34242098  0.10190508  0.69153750     0.08200
H1711       H  0.33725599  0.14135510  0.71893024     0.08200
H1712       H  0.37370243  0.13011309  0.69453728     0.05000
C1713       C  0.48755163  0.09619371  0.86744202    -0.20800
C1714       C  0.49537573  0.10910100  0.90205149    -0.07400
C1715       C  0.52449369  0.12575465  0.91067792     0.13500
C1716       C  0.54341453  0.13154188  0.88466284    -0.20900
C1717       C  0.53458312  0.12027257  0.85025599    -0.07400
C1718       C  0.50699346  0.10146992  0.84134823     0.13500
C1719       C  0.49718530  0.08841720  0.80462119    -0.24200
H1720       H  0.46527063  0.08335112  0.86084902     0.14800
H1721       H  0.56527281  0.14512573  0.89119303     0.14800
C1722       C  0.53627151  0.13664740  0.94703417    -0.24200
H1723       H  0.47436248  0.07507471  0.80226145     0.05000
H1724       H  0.51620120  0.07240436  0.79031611     0.08200
H1725       H  0.49363038  0.10772364  0.79284825     0.08200
H1726       H  0.53811589  0.11640646  0.95760941     0.08200
H1727       H  0.51973755  0.15420421  0.96325376     0.08200
H1728       H  0.56043473  0.14756954  0.94861074     0.05000
C1729       C  0.51833236  0.11326317  0.61501917    -0.20800
C1730       C  0.50576981  0.11039793  0.64596853    -0.07400
C1731       C  0.47221190  0.11302868  0.65195851     0.13500
C1732       C  0.45209853  0.11891523  0.62696532    -0.20900
C1733       C  0.46490164  0.12394424  0.59713398    -0.07400
C1734       C  0.49836130  0.12087141  0.59089522     0.13500
C1735       C  0.51298439  0.12589313  0.55903345    -0.24200
H1736       H  0.54407664  0.11114119  0.61050285     0.14800
H1737       H  0.42640384  0.12113458  0.63147675     0.14800
C1738       C  0.45759494  0.10981449  0.68465007    -0.24200
H1739       H  0.53943235  0.12188528  0.55784483     0.05000
H1740       H  0.50855663  0.15022392  0.55841057     0.08200
H1741       H  0.50208192  0.10950311  0.53614782     0.08200
H1742       H  0.46625215  0.12880808  0.70668613     0.08200
H1743       H  0.46436837  0.08689498  0.68818966     0.08200
H1744       H  0.43090416  0.11125621  0.68442137     0.05000
C1745       C  0.68699236  0.99530457  0.96901482    -0.20800
C1746       C  0.34818838  0.03196958  0.99796584    -0.07400
C1747       C  0.32946086  0.03362102  0.52982565     0.13500
C1748       C  0.31368421  0.50111153  0.53253464    -0.20900
C1749       C  0.64150332  0.48152743  0.50044782    -0.07400
C1750       C  0.66044484  0.48149420  0.97200750     0.13500
C1751       C  0.66017516  0.45339822  0.94097318    -0.24200
H1752       H  0.70436301  0.99208981  0.94838495     0.14800
H1753       H  0.30515573  0.49988773  0.55723653     0.14800
C1754       C  0.33244356  0.06000054  0.56229711    -0.24200
H1755       H  0.68827590  0.94266931  0.92148514     0.05000
H1756       H  0.63545653  0.44832836  0.42904079     0.08200
H1757       H  0.66880225  0.43251368  0.94788519     0.08200
H1758       H  0.32525302  0.08230058  0.55750793     0.08200
H1759       H  0.34912642  0.06777101  0.06958318     0.08200
H1760       H  0.33259866  0.54302327  0.58695018     0.05000
C1761       C  0.49775094  0.22508624  0.97810303    -0.20800
C1762       C  0.47458709  0.23430205  0.50734853    -0.07400
C1763       C  0.47627065  0.26516140  0.52911451     0.13500
C1764       C  0.49921256  0.28567478  0.52232844    -0.20900
C1765       C  0.52186061  0.27682314  0.99440797    -0.07400
C1766       C  0.52127410  0.24581548  0.97275972     0.13500
C1767       C  0.54593713  0.23390217  0.94479311    -0.24200
H1768       H  0.49722943  0.20149301  0.96135341     0.14800
H1769       H  0.49968955  0.30961539  0.53822155     0.14800
C1770       C  0.45348717  0.27706203  0.55889038    -0.24200
H1771       H  0.54314933  0.20852189  0.93219047     0.05000
H1772       H  0.56706394  0.23621203  0.45194572     0.08200
H1773       H  0.54325509  0.24610263  0.92479655     0.08200
H1774       H  0.45768501  0.26454683  0.57837446     0.08200
H1775       H  0.42757853  0.27219767  0.04643880     0.08200
H1776       H  0.45697420  0.30233281  0.57159793     0.05000
O1777       O  0.37978743  0.55028492  0.46515509    -0.81400
O1778       O  0.44333472  0.68081280  0.48328964    -0.66100
O1779       O  0.42565946  0.59875808  0.48759211    -1.12700
C1780       C  0.36156967  0.64894698  0.08292359     1.05500
O1781       O  0.44652825  0.70469739  0.04061017    -0.79300
O1782       O  0.44758729  0.65887372  0.07120967    -0.66900
Ni1783     Ni  0.41688253  0.56612912  0.44650371     1.34900
C1784       C  0.44489416  0.63083371  0.07188958     0.84200
O1785       O  0.46709825  0.62619085  0.45066001    -0.79800
O1786       O  0.45292771  0.57743847  0.42240266    -0.90100
C1787       C  0.45165590  0.70560089  0.01017465     0.83800
O1788       O  0.38856017  0.58951131  0.42686396    -0.68300
O1789       O  0.38358079  0.66962329  0.08905719    -0.87600
C1790       C  0.38644565  0.61825545  0.42857394     0.84600
C1791       C  0.47061195  0.60144551  0.42625105     1.06200
H1792       H  0.38257582  0.66430346  0.01226578     0.38000
O1793       O  0.40137138  0.65579377  0.02030627    -1.10300
O1794       O  0.42250483  0.61294623  0.05660831    -0.66900
Ni1795     Ni  0.39209629  0.61441486  0.02124234     1.26300
O1796       O  0.40304620  0.63914493  0.44921630    -0.67200
O1797       O  0.35907383  0.62785474  0.05468372    -0.79400
C1798       C  0.37149255  0.55014067  0.49518613     0.84000
O1799       O  0.38252061  0.57271673  0.01999915    -0.66600
Ni1800     Ni  0.41460143  0.68498042  0.06212485     1.27400
Ni1801     Ni  0.43435716  0.63966752  0.48433538     1.26100
H1802       H  0.44407048  0.59202911  0.49806453     0.38500
O1803       O  0.55159978  0.79190344  0.45771805    -0.81400
O1804       O  0.62393941  0.92048683  0.47701456    -0.66100
O1805       O  0.59609848  0.84069656  0.48044304    -1.12700
C1806       C  0.53365131  0.88891908  0.07320101     1.05500
O1807       O  0.60977113  0.95149115  0.02954717    -0.79300
O1808       O  0.61749546  0.90448613  0.05808204    -0.66900
Ni1809     Ni  0.58559130  0.81066032  0.43816684     1.34900
C1810       C  0.61640766  0.87723995  0.06184703     0.84200
O1811       O  0.64449451  0.86377111  0.44884129    -0.79800
O1812       O  0.61840223  0.82482034  0.41256590    -0.90100
C1813       C  0.62337033  0.94822568  0.00081825     0.83800
O1814       O  0.55503533  0.83745332  0.42681449    -0.68300
O1815       O  0.55467065  0.91026701  0.07860491    -0.87600
C1816       C  0.55964863  0.86482833  0.42439528     0.84600
C1817       C  0.64142196  0.84423631  0.41980035     1.06200
H1818       H  0.55537217  0.90383163  0.99709043     0.38000
O1819       O  0.57296897  0.89669249  0.00835809    -1.10300
O1820       O  0.59462182  0.85768937  0.04797881    -0.66900
Ni1821     Ni  0.56363173  0.85575370  0.01177937     1.26300
O1822       O  0.58259188  0.88188605  0.43981667    -0.67200
O1823       O  0.52981302  0.86955845  0.04416644    -0.79400
C1824       C  0.54201891  0.79350801  0.48774231     0.84000
O1825       O  0.55421083  0.81456676  0.01283119    -0.66600
Ni1826     Ni  0.58183516  0.92796656  0.05047526     1.27400
Ni1827     Ni  0.60945753  0.88064163  0.47825426     1.26100
H1828       H  0.61298728  0.83176896  0.49093425     0.38500
O1829       O  0.54298401  0.69733159  0.29159805    -0.81400
O1830       O  0.61162799  0.56722945  0.26646034    -0.66100
O1831       O  0.59084989  0.65030502  0.26735441    -1.12700
C1832       C  0.52964666  0.60449956  0.17060389     1.05500
O1833       O  0.61596840  0.54779875  0.21018570    -0.79300
O1834       O  0.61610865  0.59599130  0.18197296    -0.66900
Ni1835     Ni  0.57974103  0.68074479  0.30982079     1.34900
C1836       C  0.61238836  0.62422865  0.18219755     0.84200
O1837       O  0.63211705  0.62135884  0.30298096    -0.79800
O1838       O  0.61505911  0.66860531  0.33395649    -0.90100
C1839       C  0.62210787  0.54678476  0.24039515     0.83800
O1840       O  0.55169612  0.65505355  0.32690672    -0.68300
O1841       O  0.55256772  0.58456936  0.16367321    -0.87600
C1842       C  0.55145405  0.62586341  0.32295849     0.84600
C1843       C  0.63286703  0.64452098  0.32946387     1.06200
H1844       H  0.55155076  0.58712208  0.24051158     0.38000
O1845       O  0.56984405  0.59650094  0.23257028    -1.10300
O1846       O  0.58938224  0.64130490  0.19814340    -0.66900
Ni1847     Ni  0.55857858  0.63798252  0.23305335     1.26300
O1848       O  0.56859494  0.60635609  0.30096064    -0.67200
O1849       O  0.52620900  0.62442182  0.19950504    -0.79400
C1850       C  0.53645516  0.69932157  0.26191089     0.84000
O1851       O  0.54724897  0.67965801  0.23536468    -0.66600
Ni1852     Ni  0.58381800  0.56858262  0.18985339     1.27400
Ni1853     Ni  0.60110004  0.60880264  0.26781706     1.26100
H1854       H  0.60922099  0.65842867  0.25807374     0.38500
O1855       O  0.38955205  0.95407421  0.29000505    -0.81400
O1856       O  0.44474371  0.81861311  0.26615609    -0.66100
O1857       O  0.43246751  0.90263359  0.26538627    -1.12700
C1858       C  0.36877014  0.86232667  0.16933219     1.05500
O1859       O  0.44498851  0.79684643  0.21030207    -0.79300
O1860       O  0.45165140  0.84395163  0.18245960    -0.66900
Ni1861     Ni  0.42483961  0.93473743  0.30763340     1.34900
C1862       C  0.45194752  0.87189359  0.18089163     0.84200
O1863       O  0.47087681  0.87080618  0.30042365    -0.79800
O1864       O  0.45911280  0.91980651  0.33105237    -0.90100
C1865       C  0.45257174  0.79653518  0.24030322     0.83800
O1866       O  0.39453730  0.91232447  0.32648652    -0.68300
O1867       O  0.38824491  0.83931178  0.16335576    -0.87600
C1868       C  0.39115493  0.88333909  0.32265229     0.84600
C1869       C  0.47428607  0.89408677  0.32647556     1.06200
H1870       H  0.38642227  0.84387130  0.24148214     0.38000
O1871       O  0.40566352  0.85083179  0.23248285    -1.10300
O1872       O  0.43115468  0.89200065  0.19649830    -0.66900
Ni1873     Ni  0.39929401  0.89294160  0.23185193     1.26300
O1874       O  0.40620249  0.86215866  0.30050154    -0.67200
O1875       O  0.36634245  0.88227809  0.19838847    -0.79400
C1876       C  0.38220145  0.95534415  0.26020903     0.84000
O1877       O  0.39236277  0.93530930  0.23364076    -0.66600
Ni1878     Ni  0.41606446  0.82055902  0.19013123     1.27400
Ni1879     Ni  0.43850729  0.86066645  0.26641371     1.26100
H1880       H  0.45164362  0.90872629  0.25543820     0.38500
C1881       C  0.33093694  0.52596078  0.27157724    -0.20800
C1882       C  0.64367845  0.52199528  0.24570602    -0.07400
C1883       C  0.64292714  0.49081894  0.22466362     0.13500
C1884       C  0.65850199  0.96703814  0.23244698    -0.20900
C1885       C  0.35924850  0.97947738  0.25614874    -0.07400
C1886       C  0.36147774  0.01119221  0.27515365     0.13500
C1887       C  0.37260442  0.51400364  0.31025827    -0.24200
H1888       H  0.32971967  0.54919678  0.28917872     0.14800
H1889       H  0.65609244  0.94261810  0.21844638     0.14800
C1890       C  0.60865064  0.97738311  0.20281298    -0.24200
H1891       H  0.36843038  0.53883999  0.32462655     0.05000
H1892       H  0.41196218  0.01669692  0.28708171     0.08200
H1893       H  0.38651170  0.01198526  0.32150160     0.08200
H1894       H  0.62379242  0.49199483  0.17605615     0.06600
H1895       H  0.59415071  0.48564736  0.20622821     0.08200
H1896       H  0.60952735  0.95168676  0.19131139     0.05000
C1897       C  0.48965838  0.77584701  0.27641689    -0.20800
C1898       C  0.47273126  0.77054870  0.24550357    -0.07400
C1899       C  0.47687271  0.74146871  0.22031970     0.13500
C1900       C  0.49732755  0.71885237  0.22696156    -0.20900
C1901       C  0.51440773  0.72429605  0.25771797    -0.07400
C1902       C  0.51043499  0.75336185  0.28285751     0.13500
C1903       C  0.52871177  0.76159272  0.31605385    -0.24200
H1904       H  0.48732625  0.79819586  0.29553845     0.14800
H1905       H  0.50010123  0.69660938  0.20769002     0.14800
C1906       C  0.46003652  0.73366002  0.18630451    -0.24200
H1907       H  0.52401130  0.78601029  0.33154171     0.05000
H1908       H  0.55500474  0.75917764  0.31080827     0.08200
H1909       H  0.52124449  0.74614249  0.33170835     0.08200
H1910       H  0.46868382  0.74919344  0.17122208     0.08200
H1911       H  0.43358582  0.73620840  0.19028311     0.08200
H1912       H  0.46493589  0.70929438  0.17079163     0.05000
C1913       C  0.64711641  0.85193048  0.36315730    -0.20800
C1914       C  0.66232059  0.84733355  0.39198544    -0.07400
C1915       C  0.36300932  0.87560136  0.40709306     0.13500
C1916       C  0.38070380  0.88360915  0.38164949    -0.20900
C1917       C  0.37107566  0.87387624  0.34747012    -0.07400
C1918       C  0.66468239  0.86104929  0.33832582     0.13500
C1919       C  0.64747782  0.86738346  0.30859751    -0.24200
H1920       H  0.62113315  0.85002176  0.36100399     0.14800
H1921       H  0.40236408  0.89746624  0.38839532     0.14800
C1922       C  0.37554439  0.88508248  0.44320840    -0.24200
H1923       H  0.62118725  0.86309918  0.30949530     0.05000
H1924       H  0.65725947  0.85191608  0.28429223     0.08200
H1925       H  0.65091085  0.89210038  0.30897512     0.08200
H1926       H  0.37781737  0.86415565  0.45256648     0.08200
H1927       H  0.35931880  0.90230456  0.46044509     0.08200
H1928       H  0.39967672  0.89605463  0.44472054     0.05000
C1929       C  0.66292832  0.83684412  0.11815498    -0.20800
C1930       C  0.34909511  0.86668817  0.14089594    -0.07400
C1931       C  0.34698980  0.89587708  0.13394568     0.13500
C1932       C  0.32589744  0.89954529  0.10893322    -0.20900
C1933       C  0.63978706  0.86988365  0.08594655    -0.07400
C1934       C  0.64381581  0.83991284  0.09093795     0.13500
C1935       C  0.62904599  0.81093955  0.06761011    -0.24200
H1936       H  0.66541542  0.81423999  0.12279136     0.14800
H1937       H  0.32388699  0.92256176  0.10525178     0.14800
C1938       C  0.36765701  0.92352797  0.15076944    -0.24200
H1939       H  0.63715788  0.78954171  0.07392193     0.05000
H1940       H  0.63619125  0.80861702  0.04076339     0.08200
H1941       H  0.60253290  0.81184365  0.07005551     0.08200
H1942       H  0.38439022  0.91892555  0.16950264     0.08200
H1943       H  0.35222889  0.94378115  0.16357679     0.08200
H1944       H  0.38240712  0.92990921  0.13100888     0.05000
C1945       C  0.50831815  0.86007425  0.39367479    -0.20800
C1946       C  0.53741514  0.87619526  0.40203242    -0.07400
C1947       C  0.54468593  0.90052720  0.38707156     0.13500
C1948       C  0.52302269  0.90701812  0.36339909    -0.20900
C1949       C  0.49487679  0.88943852  0.35395936    -0.07400
C1950       C  0.48724727  0.86606852  0.36994220     0.13500
C1951       C  0.45705669  0.84667894  0.36307706    -0.24200
H1952       H  0.50190536  0.84193057  0.40538327     0.14800
H1953       H  0.52864426  0.92502370  0.35124541     0.14800
C1954       C  0.57545097  0.91897467  0.39473443    -0.24200
H1955       H  0.46352639  0.82162926  0.35282091     0.05000
H1956       H  0.44092900  0.85286751  0.34481318     0.08200
H1957       H  0.44335663  0.84993154  0.38728013     0.08200
H1958       H  0.59653812  0.90309039  0.38778601     0.08200
H1959       H  0.57634696  0.93189151  0.42227928     0.08200
H1960       H  0.57731585  0.93635896  0.38004985     0.05000
C1961       C  0.49714148  0.91110300  0.12234703    -0.20800
C1962       C  0.51468494  0.88546645  0.10243844    -0.07400
C1963       C  0.51585349  0.85780173  0.11260549     0.13500
C1964       C  0.49640269  0.85513966  0.13942986    -0.20900
C1965       C  0.47615083  0.87956602  0.15749605    -0.07400
C1966       C  0.47823072  0.90876372  0.15022238     0.13500
C1967       C  0.46158124  0.93769628  0.17174171    -0.24200
H1968       H  0.49800066  0.93296079  0.11579890     0.14800
H1969       H  0.49694840  0.83317438  0.14577372     0.14800
C1970       C  0.53826232  0.83094382  0.09725194    -0.24200
H1971       H  0.46825178  0.95864908  0.16374962     0.05000
H1972       H  0.46855515  0.94201612  0.19889271     0.08200
H1973       H  0.43523218  0.93514638  0.16922514     0.08200
H1974       H  0.55261607  0.83445969  0.07607976     0.08200
H1975       H  0.52436975  0.80904419  0.08788289     0.08200
H1976       H  0.55522878  0.82809487  0.11709086     0.05000
C1977       C  0.34600442  0.65688101  0.36639664    -0.20800
C1978       C  0.65376155  0.64181111  0.35746069    -0.07400
C1979       C  0.64920899  0.61730731  0.37266925     0.13500
C1980       C  0.67054178  0.61399493  0.39756547    -0.20900
C1981       C  0.36345077  0.62682700  0.40476376    -0.07400
C1982       C  0.36732791  0.65286593  0.39167236     0.13500
C1983       C  0.39443859  0.67575761  0.40299874    -0.24200
H1984       H  0.34898906  0.67651990  0.35604764     0.14800
H1985       H  0.66696861  0.59494526  0.40878445     0.14800
C1986       C  0.62213476  0.59403865  0.36378435    -0.24200
H1987       H  0.39445060  0.69380845  0.38908790     0.05000
H1988       H  0.41793613  0.66331251  0.39802221     0.08200
H1989       H  0.39191494  0.68793769  0.43064594     0.08200
H1990       H  0.60533445  0.59848220  0.34499927     0.08200
H1991       H  0.60797695  0.59483772  0.38717756     0.08200
H1992       H  0.63221419  0.57017857  0.35322454     0.05000
C1993       C  0.62158186  0.64504608  0.13289758    -0.20800
C1994       C  0.63443391  0.63681059  0.16086283    -0.07400
C1995       C  0.33266448  0.63399981  0.16407730     0.13500
C1996       C  0.35262543  0.64075533  0.13932928    -0.20900
C1997       C  0.33955246  0.64779126  0.11081526    -0.07400
C1998       C  0.64172544  0.65170670  0.10809989     0.13500
C1999       C  0.62685189  0.65894899  0.07761888    -0.24200
H2000       H  0.59571731  0.64462587  0.12948759     0.14800
H2001       H  0.37853352  0.63909213  0.14138095     0.14800
C2002       C  0.34764673  0.62610316  0.19414364    -0.24200
H2003       H  0.60012974  0.65944738  0.07922881     0.05000
H2004       H  0.63380925  0.64092442  0.05379443     0.08200
H2005       H  0.63512868  0.68215642  0.07620603     0.08200
H2006       H  0.34163126  0.60186142  0.19382202     0.08200
H2007       H  0.33858080  0.64250750  0.21824907     0.08200
H2008       H  0.37431590  0.62796587  0.19379304     0.05000
C2009       C  0.48604510  0.59015907  0.36507248    -0.20800
C2010       C  0.49479025  0.60191173  0.39963210    -0.07400
C2011       C  0.52442134  0.61774594  0.40786609     0.13500
C2012       C  0.54248628  0.62462294  0.38189676    -0.20900
C2013       C  0.53257417  0.61482807  0.34778339    -0.07400
C2014       C  0.50488446  0.59622110  0.33893420     0.13500
C2015       C  0.49452580  0.58410777  0.30229117    -0.24200
H2016       H  0.46354468  0.57767826  0.35862858     0.14800
H2017       H  0.56443604  0.63808158  0.38828126     0.14800
C2018       C  0.53767193  0.62662606  0.44366822    -0.24200
H2019       H  0.47194629  0.57039048  0.29986590     0.05000
H2020       H  0.51361079  0.56871506  0.28719491     0.08200
H2021       H  0.49033285  0.60392110  0.29145414     0.08200
H2022       H  0.53923435  0.60555945  0.45286595     0.08200
H2023       H  0.52226879  0.64428047  0.46135131     0.08200
H2024       H  0.56221750  0.63667896  0.44468287     0.05000
C2025       C  0.52078087  0.61344975  0.11446911    -0.20800
C2026       C  0.50760869  0.60641646  0.14311016    -0.07400
C2027       C  0.47385616  0.60433778  0.14623028     0.13500
C2028       C  0.45404633  0.61021996  0.12100145    -0.20900
C2029       C  0.46716390  0.61949916  0.09370754    -0.07400
C2030       C  0.50093220  0.62066281  0.09002489     0.13500
C2031       C  0.51604082  0.62951935  0.06046120    -0.24200
H2032       H  0.54669993  0.61480809  0.11211751     0.14800
H2033       H  0.42811423  0.60915880  0.12352915     0.14800
C2034       C  0.45870035  0.59609393  0.17612561    -0.24200
H2035       H  0.54275117  0.62825507  0.06099275     0.05000
H2036       H  0.50926008  0.65377657  0.06140595     0.08200
H2037       H  0.50771184  0.61336621  0.03602196     0.08200
H2038       H  0.46445960  0.61416478  0.20023329     0.08200
H2039       H  0.46796399  0.57312929  0.17739013     0.08200
H2040       H  0.43205558  0.59458348  0.17392659     0.05000
C2041       C  0.68052852  0.50508197  0.47032541    -0.20800
C2042       C  0.34786371  0.52619874  0.49931544    -0.07400
C2043       C  0.34336338  0.52210416  0.02973814     0.13500
C2044       C  0.30744923  0.00921372  0.02690368    -0.20900
C2045       C  0.64373987  0.97432172  0.99638061    -0.07400
C2046       C  0.67191606  0.96641093  0.47113781     0.13500
C2047       C  0.67757387  0.93545056  0.44470618    -0.24200
H2048       H  0.69532303  0.50335967  0.44791245     0.14800
H2049       H  0.29205772  0.01135905  0.04896675     0.14800
C2050       C  0.35986530  0.53977180  0.06235713    -0.24200
H2051       H  0.67614641  0.45547595  0.41894994     0.05000
H2052       H  0.64639241  0.93566829  0.92619895     0.08200
H2053       H  0.68312925  0.91723475  0.45750459     0.08200
H2054       H  0.35284733  0.56478500  0.06932572     0.08200
H2055       H  0.37117660  0.54666800  0.56880711     0.08200
H2056       H  0.30713776  0.06178204  0.07512568     0.05000
C2057       C  0.49818577  0.71727218  0.47928050    -0.20800
C2058       C  0.47409223  0.72903328  0.00401711    -0.07400
C2059       C  0.47616431  0.75970465  0.02603975     0.13500
C2060       C  0.49938537  0.77992934  0.01940750    -0.20900
C2061       C  0.51892967  0.76999940  0.49249436    -0.07400
C2062       C  0.52143492  0.73810320  0.47408638     0.13500
C2063       C  0.54898321  0.72554024  0.44978568    -0.24200
H2064       H  0.50014943  0.69284233  0.46528861     0.14800
H2065       H  0.50007703  0.80380905  0.03542293     0.14800
C2066       C  0.45346287  0.77173303  0.05588147    -0.24200
H2067       H  0.54814605  0.69970853  0.43961533     0.05000
H2068       H  0.56647361  0.72991404  0.94811475     0.08200
H2069       H  0.54790514  0.73519644  0.42761608     0.08200
H2070       H  0.45741081  0.75903633  0.07524574     0.08200
H2071       H  0.41928338  0.76472382  0.53198805     0.08200
H2072       H  0.45727519  0.79692384  0.06875286     0.05000
O2073       O  0.37987729  0.55366971  0.96397933    -0.81400
O2074       O  0.44014046  0.68549337  0.98467607    -0.66100
O2075       O  0.42545439  0.60256230  0.98761892    -1.12700
C2076       C  0.36064346  0.64612369  0.58126786     1.05500
O2077       O  0.44356890  0.70398328  0.53924628    -0.79300
O2078       O  0.44718994  0.65777039  0.56970237    -0.66900
Ni2079     Ni  0.41762398  0.56971643  0.94651604     1.34900
C2080       C  0.44474369  0.63005296  0.57164676     0.84200
O2081       O  0.46430674  0.63177056  0.94959856    -0.79800
O2082       O  0.45431895  0.58131486  0.92378048    -0.90100
C2083       C  0.45135976  0.70300872  0.50880018     0.83800
O2084       O  0.39018818  0.59286691  0.92574635    -0.68300
O2085       O  0.38299591  0.66641682  0.58778815    -0.87600
C2086       C  0.38528620  0.62169300  0.92943283     0.84600
C2087       C  0.46972003  0.60650599  0.92646708     1.06200
H2088       H  0.38308667  0.66066684  0.50910905     0.38000
O2089       O  0.40147644  0.65264898  0.51838019    -1.10300
O2090       O  0.42225705  0.61173645  0.55703926    -0.66900
Ni2091     Ni  0.39200808  0.61161932  0.52063991     1.26300
O2092       O  0.39973427  0.64312199  0.95166533    -0.67200
O2093       O  0.35818075  0.62562677  0.55274943    -0.79400
C2094       C  0.37210396  0.55267160  0.99385622     0.84000
O2095       O  0.38222916  0.57030259  0.52104008    -0.66600
Ni2096     Ni  0.41303494  0.68268363  0.56052011     1.27400
Ni2097     Ni  0.43280504  0.64388441  0.98487558     1.26100
H2098       H  0.44430533  0.59634458  0.99785184     0.38500
O2099       O  0.55334653  0.79258712  0.95692724    -0.81400
O2100       O  0.62104069  0.92337500  0.97666314    -0.66100
O2101       O  0.59744012  0.84215303  0.97953903    -1.12700
C2102       C  0.53252207  0.89048365  0.57349251     1.05500
O2103       O  0.61173566  0.94965279  0.52927100    -0.79300
O2104       O  0.61711766  0.90302991  0.55848332    -0.66900
Ni2105     Ni  0.58705423  0.81172917  0.93746564     1.34900
C2106       C  0.61510212  0.87587458  0.56235653     0.84200
O2107       O  0.64357111  0.86745950  0.94741931    -0.79800
O2108       O  0.61947280  0.82635319  0.91201956    -0.90100
C2109       C  0.62625901  0.94551928  0.50087592     0.83800
O2110       O  0.55578432  0.83754754  0.92560115    -0.68300
O2111       O  0.55434729  0.91107140  0.57893217    -0.87600
C2112       C  0.55909072  0.86518255  0.92358124     0.84600
C2113       C  0.64148009  0.84685740  0.91892963     1.06200
H2114       H  0.55660828  0.90387018  0.49673984     0.38000
O2115       O  0.57353259  0.89623337  0.50842950    -1.10300
O2116       O  0.59261159  0.85701293  0.54876332    -0.66900
Ni2117     Ni  0.56208494  0.85595384  0.51222609     1.26300
O2118       O  0.58100269  0.88325525  0.93964159    -0.67200
O2119       O  0.52822800  0.87148558  0.54428899    -0.79400
C2120       C  0.54479111  0.79336683  0.98701370     0.84000
O2121       O  0.55029514  0.81534753  0.51351338    -0.66600
Ni2122     Ni  0.58257950  0.92749657  0.55047090     1.27400
Ni2123     Ni  0.60870291  0.88276024  0.97757219     1.26100
H2124       H  0.61504539  0.83383639  0.98968313     0.38500
O2125       O  0.54633572  0.70208560  0.79093194    -0.81400
O2126       O  0.61438419  0.57001720  0.76878661    -0.66100
O2127       O  0.59114011  0.65227883  0.76781569    -1.12700
C2128       C  0.52991366  0.60523137  0.67205525     1.05500
O2129       O  0.61435125  0.54737677  0.71277042    -0.79300
O2130       O  0.61692745  0.59673490  0.68643105    -0.66900
Ni2131     Ni  0.58029859  0.68281625  0.81037137     1.34900
C2132       C  0.61252761  0.62439436  0.68492681     0.84200
O2133       O  0.63490483  0.62497690  0.80254964    -0.79800
O2134       O  0.61297731  0.66859112  0.83634282    -0.90100
C2135       C  0.62274773  0.54807230  0.74295490     0.83800
O2136       O  0.54941061  0.65750340  0.82407209    -0.68300
O2137       O  0.55386668  0.58647270  0.66506411    -0.87600
C2138       C  0.55162047  0.62896173  0.82311884     0.84600
C2139       C  0.63298516  0.64604736  0.83075751     1.06200
H2140       H  0.55238486  0.58813942  0.74393278     0.38000
O2141       O  0.57011873  0.59754679  0.73510256    -1.10300
O2142       O  0.58839738  0.64098073  0.69885887    -0.66900
Ni2143     Ni  0.55804228  0.63854721  0.73443746     1.26300
O2144       O  0.57133981  0.60980078  0.80398940    -0.67200
O2145       O  0.52529799  0.62368407  0.70159616    -0.79400
C2146       C  0.53723856  0.70136660  0.76101912     0.84000
O2147       O  0.54552249  0.67958388  0.73501303    -0.66600
Ni2148     Ni  0.58366752  0.56946522  0.69217554     1.27400
Ni2149     Ni  0.60256305  0.61118029  0.76904427     1.26100
H2150       H  0.60898966  0.66060063  0.75794093     0.38500
O2151       O  0.38841719  0.95451638  0.79050385    -0.81400
O2152       O  0.44310099  0.81862349  0.76512196    -0.66100
O2153       O  0.43110540  0.90290887  0.76540646    -1.12700
C2154       C  0.36755076  0.86390499  0.66961910     1.05500
O2155       O  0.44295259  0.79680868  0.70924837    -0.79300
O2156       O  0.44992317  0.84476432  0.68262342    -0.66900
Ni2157     Ni  0.42330598  0.93454605  0.80796680     1.34900
C2158       C  0.45020841  0.87266042  0.68086454     0.84200
O2159       O  0.46980490  0.87046563  0.79913711    -0.79800
O2160       O  0.45707608  0.91872848  0.83121669    -0.90100
C2161       C  0.45084391  0.79662110  0.73920217     0.83800
O2162       O  0.39232829  0.91203083  0.82574777    -0.68300
O2163       O  0.38669856  0.84068165  0.66359168    -0.87600
C2164       C  0.38940999  0.88303325  0.82191632     0.84600
C2165       C  0.47273564  0.89317609  0.82579424     1.06200
H2166       H  0.38463524  0.84446972  0.74135453     0.38000
O2167       O  0.40387006  0.85137386  0.73228414    -1.10300
O2168       O  0.42965510  0.89287899  0.69667178    -0.66900
Ni2169     Ni  0.39792686  0.89373751  0.73205206     1.26300
O2170       O  0.40511268  0.86205846  0.80022613    -0.67200
O2171       O  0.36501507  0.88377866  0.69866976    -0.79400
C2172       C  0.38097465  0.95582802  0.76075577     0.84000
O2173       O  0.39158305  0.93615100  0.73419288    -0.66600
Ni2174     Ni  0.41418918  0.82126980  0.68976876     1.27400
Ni2175     Ni  0.43700657  0.86076084  0.76578533     1.26100
H2176       H  0.45028610  0.90915286  0.75560090     0.38500
C2177       C  0.33613712  0.53098419  0.76781257    -0.20800
C2178       C  0.64478379  0.52347674  0.74823793    -0.07400
C2179       C  0.64210323  0.49158917  0.72978485     0.13500
C2180       C  0.66169809  0.96826693  0.72860375    -0.20900
C2181       C  0.35743587  0.97940533  0.75653557    -0.07400
C2182       C  0.35709444  0.01058471  0.77744429     0.13500
C2183       C  0.38587504  0.52189840  0.79830631    -0.24200
H2184       H  0.33828612  0.55550644  0.78150924     0.14800
H2185       H  0.65974293  0.94417579  0.71336901     0.14800
C2186       C  0.61497162  0.98000760  0.69552784    -0.24200
H2187       H  0.38465739  0.54765555  0.80920433     0.05000
H2188       H  0.40589117  0.01801181  0.79555865     0.08200
H2189       H  0.37730572  0.01004250  0.82578447     0.08200
H2190       H  0.61685971  0.48987858  0.68327673     0.06600
H2191       H  0.59148511  0.48654539  0.71839319     0.08200
H2192       H  0.61628863  0.95448101  0.68298944     0.05000
C2193       C  0.49327662  0.77892791  0.77194629    -0.20800
C2194       C  0.47177932  0.77123934  0.74434182    -0.07400
C2195       C  0.47196876  0.74039236  0.72231658     0.13500
C2196       C  0.49361386  0.71837785  0.72852568    -0.20900
C2197       C  0.51512239  0.72611033  0.75619915    -0.07400
C2198       C  0.51475656  0.75696359  0.77829217     0.13500
C2199       C  0.53739742  0.76747537  0.80810658    -0.24200
H2200       H  0.49372965  0.80264618  0.78850550     0.14800
H2201       H  0.49346899  0.69474015  0.71172832     0.14800
C2202       C  0.44901932  0.73011463  0.69277871    -0.24200
H2203       H  0.53502450  0.79285692  0.82107867     0.05000
H2204       H  0.56270675  0.76288337  0.79912971     0.08200
H2205       H  0.53193733  0.75502750  0.82742189     0.08200
H2206       H  0.45431893  0.74257181  0.67343731     0.08200
H2207       H  0.42382986  0.73494981  0.70208821     0.08200
H2208       H  0.45113732  0.70471461  0.67981663     0.05000
C2209       C  0.64859186  0.84928502  0.86021125    -0.20800
C2210       C  0.66291728  0.84914810  0.89127133    -0.07400
C2211       C  0.36342466  0.86794940  0.90350881     0.13500
C2212       C  0.38133393  0.87677993  0.87876051    -0.20900
C2213       C  0.36897924  0.87326893  0.84610032    -0.07400
C2214       C  0.66646870  0.85698220  0.83468513     0.13500
C2215       C  0.65054944  0.85756869  0.80182231    -0.24200
H2216       H  0.62299513  0.84487447  0.85659295     0.14800
H2217       H  0.40517646  0.88653079  0.88489023     0.14800
C2218       C  0.37882401  0.86972137  0.93739937    -0.24200
H2219       H  0.62476644  0.85089291  0.80138685     0.05000
H2220       H  0.66293788  0.84087130  0.77997327     0.08200
H2221       H  0.65194470  0.88137942  0.79861918     0.08200
H2222       H  0.37777679  0.84648138  0.94214755     0.08200
H2223       H  0.36648368  0.88717939  0.95851607     0.08200
H2224       H  0.40453874  0.87662483  0.93780648     0.05000
C2225       C  0.65985532  0.83530462  0.61976017    -0.20800
C2226       C  0.34850051  0.86837986  0.64108566    -0.07400
C2227       C  0.34834830  0.89696400  0.63269086     0.13500
C2228       C  0.32795806  0.90049816  0.60704018    -0.20900
C2229       C  0.63844553  0.86797092  0.58618838    -0.07400
C2230       C  0.64084474  0.83836218  0.59243680     0.13500
C2231       C  0.62456123  0.80972403  0.57024637    -0.24200
H2232       H  0.66112111  0.81305131  0.62541167     0.14800
H2233       H  0.32716944  0.92308067  0.60211220     0.14800
C2234       C  0.37029372  0.92387016  0.64872655    -0.24200
H2235       H  0.63157034  0.78838752  0.57732755     0.05000
H2236       H  0.63153819  0.80622889  0.54312933     0.08200
H2237       H  0.59814776  0.81201801  0.57309079     0.08200
H2238       H  0.38626425  0.91925704  0.66815349     0.08200
H2239       H  0.35582072  0.94510513  0.66058532     0.08200
H2240       H  0.38592909  0.92865618  0.62865117     0.05000
C2241       C  0.50849082  0.85807566  0.89129430    -0.20800
C2242       C  0.53656160  0.87569993  0.90087721    -0.07400
C2243       C  0.54284794  0.90066670  0.88660114     0.13500
C2244       C  0.52091305  0.90684433  0.86305654    -0.20900
C2245       C  0.49365905  0.88815371  0.85274674    -0.07400
C2246       C  0.48733073  0.86356722  0.86734936     0.13500
C2247       C  0.45855577  0.84229554  0.85871802    -0.24200
H2248       H  0.50300591  0.83916455  0.90217513     0.14800
H2249       H  0.52567271  0.92553026  0.85163476     0.14800
C2250       C  0.57299586  0.92003369  0.89467433    -0.24200
H2251       H  0.46681613  0.81789301  0.84727184     0.05000
H2252       H  0.44191129  0.84838904  0.84076925     0.08200
H2253       H  0.44473736  0.84338361  0.88239092     0.08200
H2254       H  0.59456897  0.90475493  0.88770004     0.08200
H2255       H  0.57352368  0.93280571  0.92227260     0.08200
H2256       H  0.57426980  0.93763051  0.88021248     0.05000
C2257       C  0.49813470  0.91309163  0.62499740    -0.20800
C2258       C  0.51338674  0.88698096  0.60278751    -0.07400
C2259       C  0.51170864  0.85804761  0.61026521     0.13500
C2260       C  0.49149695  0.85485677  0.63619435    -0.20900
C2261       C  0.47403747  0.88012646  0.65700148    -0.07400
C2262       C  0.47887137  0.91019507  0.65252463     0.13500
C2263       C  0.46488445  0.93930270  0.67678860    -0.24200
H2264       H  0.50108221  0.93573492  0.62059827     0.14800
H2265       H  0.48970770  0.83188339  0.64002559     0.14800
C2266       C  0.53222591  0.83019943  0.59330545    -0.24200
H2267       H  0.47345953  0.96068850  0.67079183     0.05000
H2268       H  0.47228747  0.94086021  0.70330940     0.08200
H2269       H  0.43830702  0.93916639  0.67512751     0.08200
H2270       H  0.54913709  0.83496791  0.57484822     0.08200
H2271       H  0.51682587  0.81013889  0.58047145     0.08200
H2272       H  0.54682903  0.82359621  0.61290295     0.05000
C2273       C  0.33955090  0.66203124  0.87225777    -0.20800
C2274       C  0.65357348  0.64265244  0.85887517    -0.07400
C2275       C  0.65229310  0.61530869  0.86979225     0.13500
C2276       C  0.67410806  0.61141148  0.89405290    -0.20900
C2277       C  0.36154382  0.62966799  0.90601650    -0.07400
C2278       C  0.36098826  0.65837247  0.89752257     0.13500
C2279       C  0.38344916  0.68478365  0.91377719    -0.24200
H2280       H  0.33929690  0.68365243  0.86519808     0.14800
H2281       H  0.67290992  0.59008377  0.90168554     0.14800
C2282       C  0.62800457  0.58965479  0.85719529    -0.24200
H2283       H  0.38015091  0.70491156  0.90322480     0.05000
H2284       H  0.40883840  0.67679472  0.90900367     0.08200
H2285       H  0.37871558  0.69320443  0.94167333     0.08200
H2286       H  0.61040563  0.59470591  0.83951149     0.08200
H2287       H  0.61419708  0.58625453  0.87923212     0.08200
H2288       H  0.64062121  0.56753799  0.84406406     0.05000
C2289       C  0.62066886  0.64583704  0.63629211    -0.20800
C2290       C  0.63435103  0.63638352  0.66309230    -0.07400
C2291       C  0.33156913  0.63346925  0.66368285     0.13500
C2292       C  0.35136256  0.64027212  0.63879333    -0.20900
C2293       C  0.33828640  0.64451603  0.60881462    -0.07400
C2294       C  0.63997269  0.65212769  0.61077346     0.13500
C2295       C  0.62419114  0.66026642  0.58126676    -0.24200
H2296       H  0.59468502  0.64655685  0.63425582     0.14800
H2297       H  0.37727706  0.64063526  0.64188033     0.14800
C2298       C  0.34664482  0.62731465  0.69463853    -0.24200
H2299       H  0.59755417  0.66152795  0.58409399     0.05000
H2300       H  0.62996727  0.64226177  0.55700585     0.08200
H2301       H  0.63290945  0.68332053  0.57981302     0.08200
H2302       H  0.34145267  0.60310935  0.69514663     0.08200
H2303       H  0.33680463  0.64397722  0.71816566     0.08200
H2304       H  0.37322763  0.63010172  0.69463181     0.05000
C2305       C  0.48307037  0.59842289  0.86563441    -0.20800
C2306       C  0.49337799  0.60743462  0.89977104    -0.07400
C2307       C  0.52416355  0.62084218  0.90778159     0.13500
C2308       C  0.54332767  0.62603050  0.88158293    -0.20900
C2309       C  0.53222672  0.61856221  0.84787949    -0.07400
C2310       C  0.50209034  0.60420267  0.83957293     0.13500
C2311       C  0.48959663  0.59623190  0.80360215    -0.24200
H2312       H  0.45927510  0.58849553  0.85966057     0.14800
H2313       H  0.56668889  0.63697496  0.88757420     0.14800
C2314       C  0.53692209  0.62959640  0.94375234    -0.24200
H2315       H  0.46531136  0.58550725  0.80154929     0.05000
H2316       H  0.50622938  0.57943872  0.78626037     0.08200
H2317       H  0.48791769  0.61771660  0.79516483     0.08200
H2318       H  0.53672344  0.60884140  0.95357318     0.08200
H2319       H  0.52198094  0.64832264  0.96069097     0.08200
H2320       H  0.56204336  0.63832284  0.94494298     0.05000
C2321       C  0.52098098  0.61373408  0.61520573    -0.20800
C2322       C  0.50789046  0.60746845  0.64438627    -0.07400
C2323       C  0.47405577  0.60625281  0.64786667     0.13500
C2324       C  0.45420667  0.61168934  0.62238613    -0.20900
C2325       C  0.46722394  0.61979734  0.59432627    -0.07400
C2326       C  0.50103866  0.62066991  0.59052244     0.13500
C2327       C  0.51607279  0.62895322  0.56057181    -0.24200
H2328       H  0.54690607  0.61468144  0.61254920     0.14800
H2329       H  0.42826994  0.61111315  0.62523089     0.14800
C2330       C  0.45874165  0.59927753  0.67841739    -0.24200
H2331       H  0.54277768  0.62754949  0.56096657     0.05000
H2332       H  0.50939546  0.65315632  0.56116107     0.08200
H2333       H  0.50754833  0.61259545  0.53634743     0.08200
H2334       H  0.46447420  0.61799936  0.70200390     0.08200
H2335       H  0.46780552  0.57657786  0.68072073     0.08200
H2336       H  0.43209540  0.59787343  0.67623951     0.05000
C2337       C  0.68093805  0.50615043  0.97120012    -0.20800
C2338       C  0.34927426  0.52812678  0.99792435    -0.07400
C2339       C  0.33554814  0.52476584  0.53137934     0.13500
C2340       C  0.30856519  0.00896064  0.52997202    -0.20900
C2341       C  0.64733415  0.97104471  0.49645873    -0.07400
C2342       C  0.66622303  0.97067264  0.96914723     0.13500
C2343       C  0.66944139  0.94094119  0.94028282    -0.24200
H2344       H  0.69565588  0.50404678  0.94864985     0.14800
H2345       H  0.29616144  0.00953733  0.55355008     0.14800
C2346       C  0.34484918  0.54784388  0.56474240    -0.24200
H2347       H  0.67626455  0.45636365  0.92030487     0.05000
H2348       H  0.65600219  0.92876669  0.42833889     0.08200
H2349       H  0.67643475  0.92140391  0.95052844     0.08200
H2350       H  0.33773616  0.57176114  0.56464621     0.08200
H2351       H  0.38639946  0.53726318  0.05917421     0.08200
H2352       H  0.31658633  0.05669917  0.58298620     0.05000
C2353       C  0.49502284  0.71965636  0.97579232    -0.20800
C2354       C  0.47295210  0.72717186  0.50290607    -0.07400
C2355       C  0.47009057  0.75912274  0.52093620     0.13500
C2356       C  0.49295106  0.78016201  0.51515348    -0.20900
C2357       C  0.52120344  0.77024006  0.99200351    -0.07400
C2358       C  0.51869725  0.73967720  0.96954611     0.13500
C2359       C  0.54107817  0.72752520  0.93941772    -0.24200
H2360       H  0.49330377  0.69617678  0.95883237     0.14800
H2361       H  0.49030768  0.80482851  0.52808560     0.14800
C2362       C  0.44255052  0.77136395  0.54531437    -0.24200
H2363       H  0.53677555  0.70246687  0.92626769     0.05000
H2364       H  0.57225908  0.73182519  0.46320285     0.08200
H2365       H  0.53725976  0.74056620  0.92033766     0.08200
H2366       H  0.44391993  0.76172998  0.56748266     0.08200
H2367       H  0.42815938  0.76871756  0.04692063     0.08200
H2368       H  0.44310609  0.79720516  0.55541595     0.05000
O2369       O  0.72227830  0.04428194  0.46181154    -0.81400
O2370       O  0.78436204  0.17791671  0.48115737    -0.66100
O2371       O  0.76280266  0.09637206  0.48499013    -1.12700
C2372       C  0.69958690  0.14534384  0.07965018     1.05500
O2373       O  0.78365985  0.20226266  0.03895775    -0.79300
O2374       O  0.78673223  0.15369086  0.06575101    -0.66900
Ni2375     Ni  0.75431430  0.06535090  0.44244145     1.34900
C2376       C  0.78269295  0.12613816  0.06766740     0.84200
O2377       O  0.80835105  0.12275920  0.45158018    -0.79800
O2378       O  0.78571088  0.08104630  0.41640919    -0.90100
C2379       C  0.79295548  0.20100854  0.00891607     0.83800
O2380       O  0.72152037  0.08951705  0.43016131    -0.68300
O2381       O  0.72351072  0.16376140  0.08663975    -0.87600
C2382       C  0.72328581  0.11744694  0.42861174     0.84600
C2383       C  0.80718555  0.10208713  0.42312833     1.06200
H2384       H  0.72349932  0.16119179  0.00713525     0.38000
O2385       O  0.74098873  0.15199943  0.01650859    -1.10300
O2386       O  0.75873660  0.10936969  0.05409695    -0.66900
Ni2387     Ni  0.72896118  0.11131624  0.01793462     1.26300
O2388       O  0.74436255  0.13654167  0.44506265    -0.67200
O2389       O  0.69536701  0.12678031  0.05019608    -0.79400
C2390       C  0.71044908  0.04637608  0.49115175     0.84000
O2391       O  0.71622725  0.07051295  0.01783372    -0.66600
Ni2392     Ni  0.75323113  0.18047286  0.05947659     1.27400
Ni2393     Ni  0.77356109  0.13710328  0.48239374     1.26100
H2394       H  0.78021221  0.08871177  0.49603458     0.38500
O2395       O  0.88674366  0.29518144  0.45655318    -0.81400
O2396       O  0.95242395  0.42792918  0.47908107    -0.66100
O2397       O  0.92917578  0.34599886  0.48022282    -1.12700
C2398       C  0.86440594  0.39211449  0.07514482     1.05500
O2399       O  0.94337489  0.45397027  0.03377790    -0.79300
O2400       O  0.94876810  0.40685773  0.06191254    -0.66900
Ni2401     Ni  0.91897008  0.31638617  0.43747551     1.34900
C2402       C  0.94720705  0.37961992  0.06555371     0.84200
O2403       O  0.97503279  0.37238448  0.44830595    -0.79800
O2404       O  0.95007326  0.33268202  0.41186842    -0.90100
C2405       C  0.95705425  0.45074326  0.00507585     0.83800
O2406       O  0.88661309  0.34243385  0.42816440    -0.68300
O2407       O  0.88555622  0.41339930  0.08118950    -0.87600
C2408       C  0.88956939  0.37019491  0.42642056     0.84600
C2409       C  0.97245376  0.35275227  0.41925986     1.06200
H2410       H  0.88821135  0.40731335  0.99990875     0.38000
O2411       O  0.90546586  0.39992558  0.01140562    -1.10300
O2412       O  0.92525924  0.36040314  0.05146603    -0.66900
Ni2413     Ni  0.89546054  0.35903644  0.01436337     1.26300
O2414       O  0.91181736  0.38819693  0.44196759    -0.67200
O2415       O  0.86086957  0.37314795  0.04578172    -0.79400
C2416       C  0.87722257  0.29584064  0.48632921     0.84000
O2417       O  0.88514335  0.31802094  0.01507331    -0.66600
Ni2418     Ni  0.91395326  0.43092494  0.05383032     1.27400
Ni2419     Ni  0.94038422  0.38699936  0.47914314     1.26100
H2420       H  0.94681129  0.33745085  0.49008107     0.38500
O2421       O  0.88175850  0.20069994  0.28928832    -0.81400
O2422       O  0.95150588  0.06886527  0.26422562    -0.66100
O2423       O  0.92699432  0.15145788  0.26528405    -1.12700
C2424       C  0.86738904  0.10355063  0.16841785     1.05500
O2425       O  0.95516602  0.04923464  0.20795275    -0.79300
O2426       O  0.95457193  0.09945624  0.18303169    -0.66900
Ni2427     Ni  0.91538113  0.18079557  0.30839312     1.34900
C2428       C  0.94891821  0.12720271  0.18246239     0.84200
O2429       O  0.97112411  0.12369962  0.29974478    -0.79800
O2430       O  0.94752787  0.16579047  0.33443907    -0.90100
C2431       C  0.96160698  0.04822977  0.23805284     0.83800
O2432       O  0.88415507  0.15448574  0.31971387    -0.68300
O2433       O  0.89219036  0.08597841  0.16133983    -0.87600
C2434       C  0.88698200  0.12591913  0.31834929     0.84600
C2435       C  0.96824605  0.14382420  0.32848441     1.06200
H2436       H  0.89043607  0.08609573  0.23872926     0.38000
O2437       O  0.90787082  0.09659080  0.23080722    -1.10300
O2438       O  0.92406473  0.14245397  0.19651297    -0.66900
Ni2439     Ni  0.89413560  0.13744273  0.23143124     1.26300
O2440       O  0.90753959  0.10747400  0.29958076    -0.67200
O2441       O  0.86206753  0.12186884  0.19793889    -0.79400
C2442       C  0.87120744  0.19975992  0.25983746     0.84000
O2443       O  0.87938942  0.17827369  0.23345695    -0.66600
Ni2444     Ni  0.92312309  0.07010352  0.18781820     1.27400
Ni2445     Ni  0.93931524  0.11019252  0.26554833     1.26100
H2446       H  0.94464937  0.16045467  0.25585874     0.38500
O2447       O  0.71755006  0.45067442  0.29015690    -0.81400
O2448       O  0.77386308  0.31616784  0.26494434    -0.66100
O2449       O  0.76189583  0.40048958  0.26463292    -1.12700
C2450       C  0.70119493  0.36139181  0.16739266     1.05500
O2451       O  0.77629009  0.29520572  0.20891712    -0.79300
O2452       O  0.78426226  0.34492156  0.18497518    -0.66900
Ni2453     Ni  0.75466887  0.43289944  0.30651378     1.34900
C2454       C  0.78302922  0.37240801  0.18202674     0.84200
O2455       O  0.79898913  0.36864224  0.30083996    -0.79800
O2456       O  0.79069825  0.41926850  0.32830763    -0.90100
C2457       C  0.78258977  0.29439664  0.23910546     0.83800
O2458       O  0.72658900  0.41014650  0.32735803    -0.68300
O2459       O  0.72194375  0.33939883  0.16131389    -0.87600
C2460       C  0.72141963  0.38122639  0.32207117     0.84600
C2461       C  0.80403703  0.39291972  0.32539224     1.06200
H2462       H  0.71662975  0.34086235  0.23866763     0.38000
O2463       O  0.73594355  0.34865315  0.23068589    -1.10300
O2464       O  0.76090936  0.39150932  0.19622724    -0.66900
Ni2465     Ni  0.72899342  0.39100839  0.23097799     1.26300
O2466       O  0.73455154  0.35986821  0.29846091    -0.67200
O2467       O  0.69677243  0.38014958  0.19689586    -0.79400
C2468       C  0.71044649  0.45285096  0.26067122     0.84000
O2469       O  0.72124190  0.43357385  0.23383688    -0.66600
Ni2470     Ni  0.74854870  0.31976973  0.18835756     1.27400
Ni2471     Ni  0.76780033  0.35845916  0.26555862     1.26100
H2472       H  0.78119374  0.40640801  0.25474491     0.38500
C2473       C  0.66334504  0.02942230  0.27043321    -0.20800
C2474       C  0.98288874  0.02298992  0.24293337    -0.07400
C2475       C  0.98242548  0.99212907  0.22092115     0.13500
C2476       C  0.99746803  0.47085924  0.23349065    -0.20900
C2477       C  0.68737485  0.47717952  0.25715074    -0.07400
C2478       C  0.68769207  0.50816835  0.27872135     0.13500
C2479       C  0.71395982  0.01947583  0.29905443    -0.24200
H2480       H  0.66536951  0.05378673  0.28483701     0.14800
H2481       H  0.99558861  0.44673569  0.21836074     0.14800
C2482       C  0.94914610  0.48174820  0.20209257    -0.24200
H2483       H  0.71305458  0.04520282  0.31032605     0.05000
H2484       H  0.73649554  0.51398398  0.29706345     0.08200
H2485       H  0.70734529  0.50601809  0.32676095     0.08200
H2486       H  0.96547957  0.99479420  0.17198803     0.06600
H2487       H  0.93441536  0.98760363  0.20030201     0.08200
H2488       H  0.95048350  0.45616480  0.18990491     0.05000
C2489       C  0.82126635  0.27495149  0.27466861    -0.20800
C2490       C  0.80298021  0.26861884  0.24459957    -0.07400
C2491       C  0.80631838  0.23893426  0.22035475     0.13500
C2492       C  0.82854948  0.21726199  0.22634425    -0.20900
C2493       C  0.84766999  0.22401132  0.25595152    -0.07400
C2494       C  0.84329864  0.25327685  0.28082175     0.13500
C2495       C  0.86207890  0.26259455  0.31367415    -0.24200
H2496       H  0.81902282  0.29758390  0.29331178     0.14800
H2497       H  0.83092449  0.19469629  0.20756188     0.14800
C2498       C  0.78627933  0.22942793  0.18838701    -0.24200
H2499       H  0.85639116  0.28680645  0.32914013     0.05000
H2500       H  0.88830637  0.26145036  0.30799595     0.08200
H2501       H  0.85597623  0.24696921  0.32959936     0.08200
H2502       H  0.79264798  0.24376009  0.17115403     0.08200
H2503       H  0.76030114  0.23230024  0.19519726     0.08200
H2504       H  0.79038112  0.20461841  0.17387615     0.05000
C2505       C  0.98019771  0.36064289  0.36275927    -0.20800
C2506       C  0.99414395  0.35541726  0.39189069    -0.07400
C2507       C  0.69670906  0.36816838  0.40488104     0.13500
C2508       C  0.71365455  0.37737599  0.37982132    -0.20900
C2509       C  0.70150152  0.37175414  0.34677009    -0.07400
C2510       C  0.99931679  0.36755434  0.33756668     0.13500
C2511       C  0.98369962  0.37416644  0.30712290    -0.24200
H2512       H  0.95418935  0.36061800  0.36045176     0.14800
H2513       H  0.73668382  0.38893768  0.38596366     0.14800
C2514       C  0.71213615  0.37222732  0.43925357    -0.24200
H2515       H  0.95708562  0.37192479  0.30785662     0.05000
H2516       H  0.99281758  0.35739899  0.28328558     0.08200
H2517       H  0.98935537  0.39828714  0.30660144     0.08200
H2518       H  0.71271182  0.34946067  0.44514444     0.08200
H2519       H  0.69880622  0.38951957  0.45967488     0.08200
H2520       H  0.73732255  0.38064372  0.43961063     0.05000
C2521       C  0.99349015  0.33906864  0.12192450    -0.20800
C2522       C  0.68268701  0.36620297  0.13861230    -0.07400
C2523       C  0.68125632  0.39562578  0.13219927     0.13500
C2524       C  0.66085498  0.39978467  0.10694600    -0.20900
C2525       C  0.97051856  0.37194734  0.08948136    -0.07400
C2526       C  0.97376369  0.34217480  0.09516826     0.13500
C2527       C  0.95744939  0.31347440  0.07314937    -0.24200
H2528       H  0.99554549  0.31663445  0.12705556     0.14800
H2529       H  0.65918284  0.42297420  0.10366453     0.14800
C2530       C  0.70168904  0.42308736  0.15015513    -0.24200
H2531       H  0.96492968  0.29210481  0.07990657     0.05000
H2532       H  0.96381431  0.31017903  0.04591157     0.08200
H2533       H  0.93108868  0.31558992  0.07662911     0.08200
H2534       H  0.71751039  0.41814980  0.16944857     0.08200
H2535       H  0.68611450  0.44335370  0.16254535     0.08200
H2536       H  0.71732734  0.42965160  0.13116781     0.05000
C2537       C  0.83864266  0.36245621  0.39499574    -0.20800
C2538       C  0.86651050  0.38049095  0.40407977    -0.07400
C2539       C  0.87245275  0.40490089  0.38889955     0.13500
C2540       C  0.85113797  0.40918500  0.36382104    -0.20900
C2541       C  0.82469726  0.38935741  0.35322990    -0.07400
C2542       C  0.81800724  0.36615343  0.36975845     0.13500
C2543       C  0.78937971  0.34457863  0.36210497    -0.24200
H2544       H  0.83307962  0.34439826  0.40713265     0.14800
H2545       H  0.85574815  0.42731495  0.35154199     0.14800
C2546       C  0.90141002  0.42583736  0.39794354    -0.24200
H2547       H  0.79785827  0.32006322  0.35235649     0.05000
H2548       H  0.77271535  0.34930049  0.34330672     0.08200
H2549       H  0.77541804  0.34687343  0.38596690     0.08200
H2550       H  0.92386599  0.41175288  0.39210726     0.08200
H2551       H  0.90059927  0.43883114  0.42548856     0.08200
H2552       H  0.90217073  0.44326771  0.38324109     0.05000
C2553       C  0.82907257  0.41367226  0.12585446    -0.20800
C2554       C  0.84515954  0.38795086  0.10400081    -0.07400
C2555       C  0.84432498  0.35902000  0.11159039     0.13500
C2556       C  0.82469583  0.35556980  0.13782044    -0.20900
C2557       C  0.80652941  0.38041819  0.15831921    -0.07400
C2558       C  0.80999501  0.41043638  0.15330563     0.13500
C2559       C  0.79468834  0.43920239  0.17685851    -0.24200
H2560       H  0.83118058  0.43628308  0.12117820     0.14800
H2561       H  0.82368317  0.33265725  0.14192274     0.14800
C2562       C  0.86486768  0.33133890  0.09422813    -0.24200
H2563       H  0.80231209  0.46070607  0.17049040     0.05000
H2564       H  0.80187390  0.44153871  0.20361413     0.08200
H2565       H  0.76819498  0.43795431  0.17474025     0.08200
H2566       H  0.88144873  0.33633152  0.07564779     0.08200
H2567       H  0.84942427  0.31127286  0.08147929     0.08200
H2568       H  0.87980381  0.32465493  0.11353577     0.05000
C2569       C  0.68407918  0.15607129  0.36589162    -0.20800
C2570       C  0.98834510  0.13985534  0.35674603    -0.07400
C2571       C  0.98498530  0.11327521  0.36878142     0.13500
C2572       C  0.00517132  0.10953286  0.39447166    -0.20900
C2573       C  0.70003894  0.12709214  0.40580558    -0.07400
C2574       C  0.70600757  0.15118881  0.39015862     0.13500
C2575       C  0.73587849  0.17099399  0.39761009    -0.24200
H2576       H  0.68888269  0.17389134  0.35323091     0.14800
H2577       H  0.00189412  0.08895388  0.40317069     0.14800
C2578       C  0.96056400  0.08791254  0.35545265    -0.24200
H2579       H  0.73694885  0.18786005  0.38222605     0.05000
H2580       H  0.75766632  0.15592844  0.39140351     0.08200
H2581       H  0.73613699  0.18464312  0.42494415     0.08200
H2582       H  0.94518017  0.09211774  0.33547803     0.08200
H2583       H  0.94468344  0.08591908  0.37670150     0.08200
H2584       H  0.97314761  0.06527673  0.34460867     0.05000
C2585       C  0.95729628  0.15077138  0.13519243    -0.20800
C2586       C  0.97061776  0.14087690  0.16191449    -0.07400
C2587       C  0.67094570  0.12982322  0.16105643     0.13500
C2588       C  0.69079474  0.13630037  0.13597640    -0.20900
C2589       C  0.67760796  0.14343673  0.10748949    -0.07400
C2590       C  0.97702838  0.15703409  0.10988773     0.13500
C2591       C  0.96191427  0.16674423  0.08101741    -0.24200
H2592       H  0.93133277  0.15167391  0.13290789     0.14800
H2593       H  0.71669318  0.13447900  0.13784484     0.14800
C2594       C  0.68594981  0.12108645  0.19058605    -0.24200
H2595       H  0.93533024  0.16901364  0.08398906     0.05000
H2596       H  0.96717062  0.14917085  0.05629677     0.08200
H2597       H  0.97168579  0.18970084  0.08044840     0.08200
H2598       H  0.67861305  0.09715007  0.19027440     0.08200
H2599       H  0.67799154  0.13779089  0.21499493     0.08200
H2600       H  0.71267285  0.12160877  0.18943488     0.05000
C2601       C  0.81821771  0.09687720  0.36200831    -0.20800
C2602       C  0.82986096  0.10407974  0.39570246    -0.07400
C2603       C  0.86164941  0.11550149  0.40254368     0.13500
C2604       C  0.88016972  0.12076523  0.37596152    -0.20900
C2605       C  0.86786597  0.11498474  0.34290736    -0.07400
C2606       C  0.83679851  0.10257607  0.33558206     0.13500
C2607       C  0.82299221  0.09646103  0.30029549    -0.24200
H2608       H  0.79385816  0.08827767  0.35664821     0.14800
H2609       H  0.90405667  0.13065965  0.38127370     0.14800
C2610       C  0.87641729  0.12210007  0.43753835    -0.24200
H2611       H  0.79823912  0.08682089  0.29889118     0.05000
H2612       H  0.83844049  0.07940820  0.28170120     0.08200
H2613       H  0.82196605  0.11854929  0.29297609     0.08200
H2614       H  0.87482264  0.10102533  0.44671922     0.08200
H2615       H  0.86393480  0.14193474  0.45578817     0.08200
H2616       H  0.90224239  0.12848511  0.43725444     0.05000
C2617       C  0.85855880  0.11006378  0.11103454    -0.20800
C2618       C  0.84537495  0.10455584  0.14052253    -0.07400
C2619       C  0.81164276  0.10211396  0.14351031     0.13500
C2620       C  0.79183274  0.10671207  0.11761987    -0.20900
C2621       C  0.80489909  0.11474272  0.08953152    -0.07400
C2622       C  0.83868714  0.11565151  0.08567406     0.13500
C2623       C  0.85379283  0.12243900  0.05489761    -0.24200
H2624       H  0.88448998  0.11150650  0.10863620     0.14800
H2625       H  0.76591614  0.10572905  0.12024805     0.14800
C2626       C  0.79646787  0.09467320  0.17387019    -0.24200
H2627       H  0.88049532  0.12099067  0.05538235     0.05000
H2628       H  0.84726528  0.14629714  0.05409094     0.08200
H2629       H  0.84526169  0.10520559  0.03126723     0.08200
H2630       H  0.80139038  0.11361913  0.19752108     0.08200
H2631       H  0.80637418  0.07233579  0.17637327     0.08200
H2632       H  0.76991592  0.09225454  0.17123615     0.05000
C2633       C  0.99483012  0.01514597  0.47287563    -0.20800
C2634       C  0.68917511  0.02077257  0.49477884    -0.07400
C2635       C  0.66315078  0.02786381  0.02158616     0.13500
C2636       C  0.64340048  0.51103174  0.02914116    -0.20900
C2637       C  0.97831315  0.47622503  0.00104409    -0.07400
C2638       C  0.00077155  0.47388702  0.47421685     0.13500
C2639       C  0.00648558  0.44314206  0.44745289    -0.24200
H2640       H  0.99593581  0.02272750  0.44991977     0.14800
H2641       H  0.62890577  0.51319420  0.05184403     0.14800
C2642       C  0.65929596  0.05829193  0.04930706    -0.24200
H2643       H  0.95271870  0.99267761  0.42558387     0.05000
H2644       H  0.99213055  0.43076055  0.93540916     0.08200
H2645       H  0.01248296  0.42483039  0.45997687     0.08200
H2646       H  0.65413469  0.07740630  0.03768275     0.08200
H2647       H  0.67928767  0.06350841  0.56271939     0.08200
H2648       H  0.64612285  0.56268650  0.07838977     0.05000
C2649       C  0.83542049  0.21772906  0.47566780    -0.20800
C2650       C  0.81417040  0.22569566  0.00396516    -0.07400
C2651       C  0.80879619  0.25763130  0.02059551     0.13500
C2652       C  0.83041532  0.27964976  0.01492967    -0.20900
C2653       C  0.85519376  0.27106753  0.49052034    -0.07400
C2654       C  0.85734875  0.23966952  0.47012201     0.13500
C2655       C  0.88305538  0.22874192  0.44307026    -0.24200
H2656       H  0.83750878  0.19362516  0.46040946     0.14800
H2657       H  0.82580706  0.30426831  0.02664138     0.14800
C2658       C  0.78003826  0.26876999  0.04358286    -0.24200
H2659       H  0.88224433  0.20308433  0.43127049     0.05000
H2660       H  0.91474893  0.23591955  0.97077713     0.08200
H2661       H  0.87956972  0.23989822  0.42229208     0.08200
H2662       H  0.78157911  0.26012693  0.06644831     0.08200
H2663       H  0.75836393  0.26220503  0.53478900     0.08200
H2664       H  0.77877997  0.29464919  0.05272573     0.05000
O2665       O  0.71920965  0.04744438  0.96213258    -0.81400
O2666       O  0.78623228  0.17859495  0.98310397    -0.66100
O2667       O  0.76286704  0.09706886  0.98505077    -1.12700
C2668       C  0.69603293  0.14512150  0.57664976     1.05500
O2669       O  0.78090876  0.20243127  0.53660393    -0.79300
O2670       O  0.78325193  0.15482896  0.56573537    -0.66900
Ni2671     Ni  0.75244632  0.06698700  0.94256643     1.34900
C2672       C  0.77937994  0.12736391  0.56811595     0.84200
O2673       O  0.80809432  0.12329373  0.95065933    -0.79800
O2674       O  0.78448687  0.08154002  0.91633509    -0.90100
C2675       C  0.79050972  0.20097156  0.50655417     0.83800
O2676       O  0.72081904  0.09267458  0.93110892    -0.68300
O2677       O  0.71929511  0.16438313  0.58363898    -0.87600
C2678       C  0.72286027  0.12080534  0.93039227     0.84600
C2679       C  0.80619248  0.10235113  0.92239922     1.06200
H2680       H  0.72164750  0.15958470  0.50393974     0.38000
O2681       O  0.73900066  0.15108403  0.51425003    -1.10300
O2682       O  0.75613917  0.10996140  0.55384739    -0.66900
Ni2683     Ni  0.72760307  0.11039481  0.51634612     1.26300
O2684       O  0.74425263  0.13935673  0.94712768    -0.67200
O2685       O  0.69290037  0.12563509  0.54747053    -0.79400
C2686       C  0.70856644  0.04876653  0.99174407     0.84000
O2687       O  0.71575347  0.06950636  0.51675846    -0.66600
Ni2688     Ni  0.74987564  0.18072265  0.55694321     1.27400
Ni2689     Ni  0.77442654  0.13784019  0.98315784     1.26100
H2690       H  0.78044479  0.08864154  0.99511280     0.38500
O2691       O  0.88950367  0.29353398  0.95969012    -0.81400
O2692       O  0.95373149  0.42650197  0.98034752    -0.66100
O2693       O  0.93037634  0.34532152  0.98327540    -1.12700
C2694       C  0.86611502  0.39143756  0.57520938     1.05500
O2695       O  0.94393527  0.45409525  0.53328914    -0.79300
O2696       O  0.95037543  0.40540634  0.55927389    -0.66900
Ni2697     Ni  0.92139068  0.31495646  0.94069948     1.34900
C2698       C  0.94842569  0.37807605  0.56263499     0.84200
O2699       O  0.97726428  0.37087414  0.95207667    -0.79800
O2700       O  0.95244748  0.33139053  0.91534383    -0.90100
C2701       C  0.95634703  0.45179344  0.50416980     0.83800
O2702       O  0.88868891  0.34018862  0.93027171    -0.68300
O2703       O  0.88770039  0.41233060  0.58110768    -0.87600
C2704       C  0.89178708  0.36760199  0.92743520     0.84600
C2705       C  0.97479041  0.35145595  0.92292612     1.06200
H2706       H  0.88765357  0.40844659  0.50033158     0.38000
O2707       O  0.90526604  0.40047075  0.51080060    -1.10300
O2708       O  0.92608919  0.35929728  0.54860868    -0.66900
Ni2709     Ni  0.89522916  0.35920190  0.51277561     1.26300
O2710       O  0.91404367  0.38579059  0.94276854    -0.67200
O2711       O  0.86171451  0.37295684  0.54570330    -0.79400
C2712       C  0.87917890  0.29519865  0.98942506     0.84000
O2713       O  0.88461818  0.31776730  0.51245804    -0.66600
Ni2714     Ni  0.91532187  0.43041128  0.55350657     1.27400
Ni2715     Ni  0.94159107  0.38594949  0.98130254     1.26100
H2716       H  0.94766673  0.33720634  0.99405152     0.38500
O2717       O  0.88167192  0.19945581  0.78596109    -0.81400
O2718       O  0.95057502  0.06767462  0.76275492    -0.66100
O2719       O  0.92458883  0.14908808  0.76234741    -1.12700
C2720       C  0.86239683  0.10032151  0.66824747     1.05500
O2721       O  0.94945131  0.04468089  0.70686169    -0.79300
O2722       O  0.94980420  0.09427098  0.68104832    -0.66900
Ni2723     Ni  0.91335263  0.17815674  0.80560324     1.34900
C2724       C  0.94439517  0.12179304  0.67957642     0.84200
O2725       O  0.97075580  0.12318281  0.79569967    -0.79800
O2726       O  0.94427609  0.16207588  0.83205930    -0.90100
C2727       C  0.95848206  0.04567171  0.73686627     0.83800
O2728       O  0.88083223  0.15179850  0.81477124    -0.68300
O2729       O  0.88696097  0.08248125  0.66077435    -0.87600
C2730       C  0.88523763  0.12402583  0.81589774     0.84600
C2731       C  0.96675109  0.14180222  0.82522168     1.06200
H2732       H  0.88750386  0.08380513  0.73969242     0.38000
O2733       O  0.90448938  0.09372830  0.73035872    -1.10300
O2734       O  0.91978592  0.13758989  0.69355276    -0.66900
Ni2735     Ni  0.89070227  0.13425277  0.72994835     1.26300
O2736       O  0.90751351  0.10633359  0.79926894    -0.67200
O2737       O  0.85745843  0.11817405  0.69803416    -0.79400
C2738       C  0.87053405  0.19780359  0.75657626     0.84000
O2739       O  0.87618681  0.17479379  0.73077497    -0.66600
Ni2740     Ni  0.91772418  0.06608022  0.68709153     1.27400
Ni2741     Ni  0.93756148  0.10836451  0.76326966     1.26100
H2742       H  0.94169140  0.15818905  0.75224100     0.38500
O2743       O  0.72232030  0.45425894  0.79106729    -0.81400
O2744       O  0.77917983  0.31784184  0.76495669    -0.66100
O2745       O  0.76446257  0.40210675  0.76574115    -1.12700
C2746       C  0.70062261  0.36217908  0.67020443     1.05500
O2747       O  0.77606543  0.29516468  0.70923826    -0.79300
O2748       O  0.78364210  0.34355642  0.68305294    -0.66900
Ni2749     Ni  0.75637556  0.43333850  0.80855526     1.34900
C2750       C  0.78365733  0.37154085  0.68149684     0.84200
O2751       O  0.80513284  0.37037770  0.79879124    -0.79800
O2752       O  0.78929210  0.41699256  0.83234522    -0.90100
C2753       C  0.78517105  0.29525884  0.73888835     0.83800
O2754       O  0.72468287  0.41025968  0.82444987    -0.68300
O2755       O  0.72052919  0.33957645  0.66375320    -0.87600
C2756       C  0.72355749  0.38136056  0.82187101     0.84600
C2757       C  0.80641331  0.39230030  0.82639760     1.06200
H2758       H  0.71912977  0.34276198  0.74248306     0.38000
O2759       O  0.73794478  0.34995558  0.73296885    -1.10300
O2760       O  0.76255346  0.39143963  0.69701662    -0.66900
Ni2761     Ni  0.73088748  0.39216024  0.73267399     1.26300
O2762       O  0.74069781  0.36075221  0.80128066    -0.67200
O2763       O  0.69763238  0.38136898  0.69962340    -0.79400
C2764       C  0.71374089  0.45504371  0.76146123     0.84000
O2765       O  0.72301413  0.43459071  0.73472460    -0.66600
Ni2766     Ni  0.74779384  0.32003373  0.69001576     1.27400
Ni2767     Ni  0.77171500  0.35998322  0.76595429     1.26100
H2768       H  0.78326978  0.40887954  0.75580526     0.38500
C2769       C  0.66486865  0.02969225  0.76966700    -0.20800
C2770       C  0.98033018  0.02115642  0.74206003    -0.07400
C2771       C  0.97810364  0.98944678  0.72290890     0.13500
C2772       C  0.99495238  0.46797073  0.73064469    -0.20900
C2773       C  0.69046584  0.47933279  0.75798254    -0.07400
C2774       C  0.69274294  0.51106499  0.77706663     0.13500
C2775       C  0.71276764  0.01847376  0.80142503    -0.24200
H2776       H  0.66622570  0.05367230  0.78545943     0.14800
H2777       H  0.99235690  0.44364272  0.71642382     0.14800
C2778       C  0.94667595  0.47911451  0.69917587    -0.24200
H2779       H  0.71169128  0.04409589  0.81343570     0.05000
H2780       H  0.74331155  0.51667616  0.78860831     0.08200
H2781       H  0.71817144  0.51176101  0.82317109     0.08200
H2782       H  0.95718269  0.98847182  0.67440934     0.06600
H2783       H  0.92857617  0.98459265  0.70675469     0.08200
H2784       H  0.94715307  0.45338772  0.68784704     0.05000
C2785       C  0.82925147  0.27672002  0.76873857    -0.20800
C2786       C  0.80566944  0.26931235  0.74318766    -0.07400
C2787       C  0.80373286  0.23824063  0.72187784     0.13500
C2788       C  0.82540150  0.21569789  0.72680216    -0.20900
C2789       C  0.84901731  0.22316880  0.75243012    -0.07400
C2790       C  0.85090472  0.25429732  0.77366431     0.13500
C2791       C  0.87618805  0.26464727  0.80091930    -0.24200
H2792       H  0.83129816  0.30059561  0.78462595     0.14800
H2793       H  0.82358306  0.19187757  0.71068671     0.14800
C2794       C  0.77851040  0.22829920  0.69452931    -0.24200
H2795       H  0.87538282  0.29025032  0.81310792     0.05000
H2796       H  0.90054539  0.25871528  0.78952723     0.08200
H2797       H  0.87219839  0.25326839  0.82145624     0.08200
H2798       H  0.78257626  0.24002223  0.67429740     0.08200
H2799       H  0.75415874  0.23426335  0.70591975     0.08200
H2800       H  0.77925396  0.20274037  0.68205714     0.05000
C2801       C  0.98047610  0.36061851  0.86710157    -0.20800
C2802       C  0.99564429  0.35492461  0.89535708    -0.07400
C2803       C  0.69750491  0.36709484  0.90390557     0.13500
C2804       C  0.71621720  0.37373944  0.87829270    -0.20900
C2805       C  0.70324642  0.37164442  0.84616115    -0.07400
C2806       C  0.99843022  0.36748966  0.84115895     0.13500
C2807       C  0.98135471  0.37481535  0.81188095    -0.24200
H2808       H  0.95437955  0.36090661  0.86603859     0.14800
H2809       H  0.74090770  0.38134446  0.88356687     0.14800
C2810       C  0.71269902  0.36887886  0.93786323    -0.24200
H2811       H  0.95479185  0.37302250  0.81407399     0.05000
H2812       H  0.98921792  0.35816529  0.78740177     0.08200
H2813       H  0.98701593  0.39895914  0.81146139     0.08200
H2814       H  0.70972717  0.34624326  0.94370219     0.08200
H2815       H  0.70144358  0.38776345  0.95845113     0.08200
H2816       H  0.73889099  0.37388240  0.93773816     0.05000
C2817       C  0.99247597  0.33655412  0.61954553    -0.20800
C2818       C  0.68132597  0.36692818  0.64184635    -0.07400
C2819       C  0.67920367  0.39635671  0.63552010     0.13500
C2820       C  0.65863594  0.40016394  0.61018950    -0.20900
C2821       C  0.97135621  0.36990927  0.58662136    -0.07400
C2822       C  0.97407593  0.33995282  0.59194150     0.13500
C2823       C  0.95898414  0.31131221  0.56833604    -0.24200
H2824       H  0.99397270  0.31399479  0.62445882     0.14800
H2825       H  0.65639408  0.42334775  0.60700325     0.14800
C2826       C  0.69940024  0.42408195  0.65329288    -0.24200
H2827       H  0.96617026  0.28976770  0.57489380     0.05000
H2828       H  0.96683834  0.30876841  0.54164648     0.08200
H2829       H  0.93247046  0.31283881  0.57010773     0.08200
H2830       H  0.71652040  0.41902479  0.67144963     0.08200
H2831       H  0.68362148  0.44380116  0.66681141     0.08200
H2832       H  0.71386777  0.43149745  0.63402484     0.05000
C2833       C  0.84306856  0.35728107  0.89175910    -0.20800
C2834       C  0.86906934  0.37727488  0.90409858    -0.07400
C2835       C  0.87326697  0.40382243  0.89187261     0.13500
C2836       C  0.85190579  0.40876187  0.86711723    -0.20900
C2837       C  0.82714917  0.38756602  0.85375639    -0.07400
C2838       C  0.82242244  0.36175952  0.86682046     0.13500
C2839       C  0.79574781  0.33825453  0.85575536    -0.24200
H2840       H  0.83881635  0.33726626  0.90120357     0.14800
H2841       H  0.85514357  0.42870557  0.85732309     0.14800
C2842       C  0.90037336  0.42661844  0.90382076    -0.24200
H2843       H  0.80627960  0.31472380  0.84427679     0.05000
H2844       H  0.77933433  0.34347302  0.83707646     0.08200
H2845       H  0.78103501  0.33759007  0.87833350     0.08200
H2846       H  0.92391810  0.41444785  0.89755336     0.08200
H2847       H  0.89834476  0.43753352  0.93179316     0.08200
H2848       H  0.89984753  0.44566514  0.89130049     0.05000
C2849       C  0.83069015  0.41284533  0.62587425    -0.20800
C2850       C  0.84715523  0.38725475  0.60429264    -0.07400
C2851       C  0.84673385  0.35845579  0.61218849     0.13500
C2852       C  0.82690022  0.35492969  0.63838558    -0.20900
C2853       C  0.80784727  0.37954697  0.65820611    -0.07400
C2854       C  0.81128687  0.40952628  0.65307212     0.13500
C2855       C  0.79537847  0.43818904  0.67611925    -0.24200
H2856       H  0.83259785  0.43540847  0.62104662     0.14800
H2857       H  0.82623947  0.33215731  0.64285650     0.14800
C2858       C  0.86777760  0.33105744  0.59491197    -0.24200
H2859       H  0.80297818  0.45971313  0.66978403     0.05000
H2860       H  0.80209027  0.44076760  0.70306223     0.08200
H2861       H  0.76892224  0.43655981  0.67335255     0.08200
H2862       H  0.88325413  0.33571232  0.57515698     0.08200
H2863       H  0.85270469  0.31038010  0.58323404     0.08200
H2864       H  0.88374271  0.32543519  0.61410447     0.05000
C2865       C  0.68351368  0.16025141  0.86819133    -0.20800
C2866       C  0.98752630  0.13813418  0.85316603    -0.07400
C2867       C  0.98724079  0.11033057  0.86320653     0.13500
C2868       C  0.00798709  0.10726168  0.88877305    -0.20900
C2869       C  0.69952923  0.13092483  0.90784992    -0.07400
C2870       C  0.70478565  0.15595647  0.89342891     0.13500
C2871       C  0.73309066  0.17757005  0.90347455    -0.24200
H2872       H  0.68780245  0.17884468  0.85651180     0.14800
H2873       H  0.00725124  0.08562715  0.89581480     0.14800
C2874       C  0.96511262  0.08325886  0.84838296    -0.24200
H2875       H  0.73352032  0.19546002  0.88935774     0.05000
H2876       H  0.75593015  0.16406638  0.89770561     0.08200
H2877       H  0.73169525  0.19000180  0.93115619     0.08200
H2878       H  0.94901634  0.08709855  0.82875373     0.08200
H2879       H  0.94978059  0.07907296  0.86900345     0.08200
H2880       H  0.97955709  0.06190388  0.83685843     0.05000
C2881       C  0.95235097  0.14492660  0.63190597    -0.20800
C2882       C  0.96598841  0.13454794  0.65815320    -0.07400
C2883       C  0.66742257  0.13456702  0.66063521     0.13500
C2884       C  0.68702098  0.14014845  0.63484684    -0.20900
C2885       C  0.67372507  0.14351985  0.60450314    -0.07400
C2886       C  0.97174399  0.15148902  0.60652071     0.13500
C2887       C  0.95620815  0.16132395  0.57795955    -0.24200
H2888       H  0.92637413  0.14620233  0.63017228     0.14800
H2889       H  0.71295730  0.14048249  0.63771744     0.14800
C2890       C  0.68265378  0.12945126  0.69201737    -0.24200
H2891       H  0.92961791  0.16324670  0.58110230     0.05000
H2892       H  0.96151528  0.14396134  0.55310369     0.08200
H2893       H  0.96561595  0.18445704  0.57757325     0.08200
H2894       H  0.67682546  0.10575137  0.69384249     0.08200
H2895       H  0.67337614  0.14709062  0.71513047     0.08200
H2896       H  0.70929164  0.13156479  0.69144108     0.05000
C2897       C  0.81488640  0.10003795  0.86174758    -0.20800
C2898       C  0.82823412  0.10368834  0.89425911    -0.07400
C2899       C  0.86135831  0.11069631  0.89938099     0.13500
C2900       C  0.87981590  0.11528184  0.87233466    -0.20900
C2901       C  0.86592281  0.11337834  0.84060525    -0.07400
C2902       C  0.83332820  0.10514464  0.83493605     0.13500
C2903       C  0.81803427  0.10222982  0.80082684    -0.24200
H2904       H  0.78951716  0.09461164  0.85775002     0.14800
H2905       H  0.90493126  0.12179664  0.87641129     0.14800
C2906       C  0.87744663  0.11316579  0.93304264    -0.24200
H2907       H  0.79232672  0.09534912  0.80058552     0.05000
H2908       H  0.83099203  0.08419765  0.78066946     0.08200
H2909       H  0.81929334  0.12489334  0.79476366     0.08200
H2910       H  0.87367371  0.09128638  0.94028892     0.08200
H2911       H  0.86744615  0.13319957  0.95323865     0.08200
H2912       H  0.90381364  0.11687022  0.93166972     0.05000
C2913       C  0.85432247  0.10933092  0.61187695    -0.20800
C2914       C  0.84066803  0.10275841  0.64060754    -0.07400
C2915       C  0.80682718  0.10124739  0.64343842     0.13500
C2916       C  0.78745575  0.10755907  0.61810011    -0.20900
C2917       C  0.80110285  0.11630857  0.59069394    -0.07400
C2918       C  0.83493131  0.11661291  0.58710957     0.13500
C2919       C  0.85058045  0.12441381  0.55716734    -0.24200
H2920       H  0.88030160  0.11015469  0.60960703     0.14800
H2921       H  0.76147153  0.10701922  0.62049009     0.14800
C2922       C  0.79109565  0.09281264  0.67294245    -0.24200
H2923       H  0.87723001  0.12236009  0.55770497     0.05000
H2924       H  0.84465176  0.14873075  0.55756664     0.08200
H2925       H  0.84188790  0.10815742  0.53295531     0.08200
H2926       H  0.79650911  0.11072872  0.69726768     0.08200
H2927       H  0.80014760  0.06975376  0.67414376     0.08200
H2928       H  0.76448791  0.09136496  0.67026964     0.05000
C2929       C  0.00008503  0.01214100  0.97021724    -0.20800
C2930       C  0.68624729  0.02374108  0.99496416    -0.07400
C2931       C  0.66444311  0.02545465  0.51980350     0.13500
C2932       C  0.64276845  0.50899492  0.52786945    -0.20900
C2933       C  0.97687248  0.47790607  0.50014250    -0.07400
C2934       C  0.00429153  0.47091777  0.97727255     0.13500
C2935       C  0.01212725  0.43905884  0.95362027    -0.24200
H2936       H  0.00586475  0.01511074  0.94542784     0.14800
H2937       H  0.62819686  0.51084520  0.55044989     0.14800
C2938       C  0.65828622  0.05664918  0.54555860    -0.24200
H2939       H  0.97329612  0.97583795  0.91645118     0.05000
H2940       H  0.98481018  0.43639493  0.43127327     0.08200
H2941       H  0.01642029  0.42240512  0.96878377     0.08200
H2942       H  0.65354645  0.07451686  0.53206259     0.08200
H2943       H  0.68146928  0.06355457  0.06491121     0.08200
H2944       H  0.64296001  0.56113643  0.57649344     0.05000
C2945       C  0.84115641  0.21658601  0.98254822    -0.20800
C2946       C  0.81136138  0.22609343  0.50103403    -0.07400
C2947       C  0.80860450  0.25768170  0.52068404     0.13500
C2948       C  0.83045160  0.27964142  0.51501875    -0.20900
C2949       C  0.85773250  0.27052601  0.99405384    -0.07400
C2950       C  0.86322868  0.23856091  0.97760424     0.13500
C2951       C  0.89271313  0.22731721  0.95580734    -0.24200
H2952       H  0.84537820  0.19199981  0.97020527     0.14800
H2953       H  0.82784617  0.30392899  0.52949983     0.14800
C2954       C  0.78219517  0.26879827  0.54685361    -0.24200
H2955       H  0.89404939  0.20142877  0.94693358     0.05000
H2956       H  0.90723594  0.23462244  0.45452746     0.08200
H2957       H  0.89221603  0.23579533  0.93278808     0.08200
H2958       H  0.78531017  0.25844082  0.56830767     0.08200
H2959       H  0.75751812  0.26024357  0.02952084     0.08200
H2960       H  0.78245699  0.29456275  0.55786693     0.05000
O2961       O  0.71312855  0.55860982  0.46558978    -0.81400
O2962       O  0.77391928  0.69012671  0.48687711    -0.66100
O2963       O  0.75850977  0.60723980  0.49012932    -1.12700
C2964       C  0.69807791  0.65301836  0.08457100     1.05500
O2965       O  0.78300305  0.70875866  0.04146938    -0.79300
O2966       O  0.78527319  0.66127763  0.07083130    -0.66900
Ni2967     Ni  0.75153814  0.57422972  0.44896659     1.34900
C2968       C  0.78113022  0.63375172  0.07283626     0.84200
O2969       O  0.79767231  0.63615615  0.45226634    -0.79800
O2970       O  0.78915075  0.58540352  0.42712442    -0.90100
C2971       C  0.78796729  0.70954792  0.01086733     0.83800
O2972       O  0.72496911  0.59726897  0.42714794    -0.68300
O2973       O  0.72143410  0.67238223  0.09121146    -0.87600
C2974       C  0.71991304  0.62612174  0.43117980     0.84600
C2975       C  0.80410957  0.61082857  0.42969614     1.06200
H2976       H  0.71975693  0.66880045  0.01368003     0.38000
O2977       O  0.73823261  0.65975701  0.02165243    -1.10300
O2978       O  0.75766469  0.61680786  0.05857483    -0.66900
Ni2979     Ni  0.72779994  0.61872233  0.02276667     1.26300
O2980       O  0.73355428  0.64765706  0.45398224    -0.67200
O2981       O  0.69464096  0.63321063  0.05564742    -0.79400
C2982       C  0.70450662  0.55752812  0.49520300     0.84000
O2983       O  0.71687878  0.57736897  0.02195835    -0.66600
Ni2984     Ni  0.75202588  0.68821813  0.06362434     1.27400
Ni2985     Ni  0.76624578  0.64851966  0.48738101     1.26100
H2986       H  0.77713909  0.60106361  0.50073770     0.38500
O2987       O  0.88127798  0.80543890  0.46027286    -0.81400
O2988       O  0.93737618  0.93844208  0.48427020    -0.66100
O2989       O  0.92602573  0.85458795  0.48557845    -1.12700
C2990       C  0.86599453  0.89352975  0.08097902     1.05500
O2991       O  0.94326774  0.95712172  0.03863313    -0.79300
O2992       O  0.94943578  0.90926805  0.06533514    -0.66900
Ni2993     Ni  0.91982323  0.82171640  0.44442380     1.34900
C2994       C  0.94932907  0.88109042  0.06610560     0.84200
O2995       O  0.96262451  0.88566099  0.44848561    -0.79800
O2996       O  0.95750901  0.83424888  0.42396594    -0.90100
C2997       C  0.94979749  0.95809361  0.00842681     0.83800
O2998       O  0.89317754  0.84449181  0.42250476    -0.68300
O2999       O  0.88622854  0.91580995  0.08692877    -0.87600
C3000       C  0.88576469  0.87304423  0.42776559     0.84600
C3001       C  0.97081130  0.86051757  0.42648089     1.06200
H3002       H  0.88277014  0.91293806  0.00980551     0.38000
O3003       O  0.90211797  0.90516041  0.01765135    -1.10300
O3004       O  0.92738200  0.86211092  0.05176734    -0.66900
Ni3005     Ni  0.89520254  0.86298601  0.01768106     1.26300
O3006       O  0.89806379  0.89476978  0.45131510    -0.67200
O3007       O  0.86281050  0.87394866  0.05187615    -0.79400
C3008       C  0.87368981  0.80319021  0.48970334     0.84000
O3009       O  0.88742223  0.82048609  0.01461460    -0.66600
Ni3010     Ni  0.91420329  0.93421823  0.05975374     1.27400
Ni3011     Ni  0.93140594  0.89634278  0.48389921     1.26100
H3012       H  0.94538638  0.84902413  0.49552063     0.38500
O3013       O  0.88203861  0.70272766  0.29139309    -0.81400
O3014       O  0.94462488  0.56973485  0.27059707    -0.66100
O3015       O  0.92768105  0.65307651  0.26857323    -1.12700
C3016       C  0.86446224  0.60730422  0.17303607     1.05500
O3017       O  0.94833308  0.54939325  0.21429182    -0.79300
O3018       O  0.95055737  0.59585035  0.18401622    -0.66900
Ni3019     Ni  0.91811630  0.68537541  0.31013994     1.34900
C3020       C  0.94769466  0.62379404  0.18293809     0.84200
O3021       O  0.96691697  0.62373335  0.30648999    -0.79800
O3022       O  0.95280826  0.67271616  0.33495532    -0.90100
C3023       C  0.95460139  0.54875697  0.24457831     0.83800
O3024       O  0.88866416  0.66195623  0.32859034    -0.68300
O3025       O  0.88658137  0.58653162  0.16650224    -0.87600
C3026       C  0.88639762  0.63301547  0.32568785     0.84600
C3027       C  0.96912560  0.64785677  0.33188737     1.06200
H3028       H  0.88566415  0.59134287  0.24400126     0.38000
O3029       O  0.90442582  0.59968641  0.23562521    -1.10300
O3030       O  0.92555200  0.64206767  0.19889406    -0.66900
Ni3031     Ni  0.89482659  0.64106672  0.23465705     1.26300
O3032       O  0.90264462  0.61196911  0.30433662    -0.67200
O3033       O  0.86185817  0.62785091  0.20163459    -0.79400
C3034       C  0.87395218  0.70271062  0.26137895     0.84000
O3035       O  0.88496960  0.68263830  0.23534591    -0.66600
Ni3036     Ni  0.91709833  0.57033423  0.19332281     1.27400
Ni3037     Ni  0.93588891  0.61159466  0.27088480     1.26100
H3038       H  0.94646292  0.65982784  0.25857268     0.38500
O3039       O  0.71431592  0.95144163  0.28944654    -0.81400
O3040       O  0.78012387  0.81807548  0.26380444    -0.66100
O3041       O  0.75818971  0.90113724  0.26524155    -1.12700
C3042       C  0.69735543  0.85835035  0.16866586     1.05500
O3043       O  0.77374629  0.79341128  0.20887371    -0.79300
O3044       O  0.78097152  0.84279052  0.18418537    -0.66900
Ni3045     Ni  0.74664900  0.93018782  0.30835262     1.34900
C3046       C  0.78002143  0.87073040  0.18250175     0.84200
O3047       O  0.80215496  0.87271326  0.29712289    -0.79800
O3048       O  0.77782069  0.91353062  0.33351569    -0.90100
C3049       C  0.78499975  0.79489024  0.23809980     0.83800
O3050       O  0.71420613  0.90418541  0.31839437    -0.68300
O3051       O  0.71866933  0.83705481  0.16244721    -0.87600
C3052       C  0.71781901  0.87602311  0.31839988     0.84600
C3053       C  0.79892252  0.89192345  0.32644799     1.06200
H3054       H  0.71657961  0.83939591  0.24221810     0.38000
O3055       O  0.73471089  0.84738533  0.23241333    -1.10300
O3056       O  0.75759226  0.88965415  0.19676379    -0.66900
Ni3057     Ni  0.72545611  0.88918751  0.23168740     1.26300
O3058       O  0.73925309  0.85797963  0.30094790    -0.67200
O3059       O  0.69282281  0.87678115  0.19820014    -0.79400
C3060       C  0.70653082  0.95189547  0.25956294     0.84000
O3061       O  0.71574155  0.93106577  0.23313071    -0.66600
Ni3062     Ni  0.74559393  0.81799510  0.18936792     1.27400
Ni3063     Ni  0.76880794  0.85958397  0.26493446     1.26100
H3064       H  0.77630773  0.90983807  0.25619095     0.38500
C3065       C  0.66577136  0.53006850  0.27279547    -0.20800
C3066       C  0.97626047  0.52389114  0.24953566    -0.07400
C3067       C  0.97486092  0.49264457  0.22873016     0.13500
C3068       C  0.00325606  0.96961488  0.22724444    -0.20900
C3069       C  0.68400458  0.97627590  0.25552919    -0.07400
C3070       C  0.68644404  0.00792639  0.27485885     0.13500
C3071       C  0.71159009  0.51862585  0.30733067    -0.24200
H3072       H  0.66637647  0.55391962  0.28903492     0.14800
H3073       H  0.00204030  0.94579017  0.21110900     0.14800
C3074       C  0.95961155  0.98235060  0.19120350    -0.24200
H3075       H  0.70941153  0.54399682  0.32041299     0.05000
H3076       H  0.73722848  0.01349156  0.28516553     0.08200
H3077       H  0.71296247  0.00876353  0.32042928     0.08200
H3078       H  0.95209443  0.49326891  0.18153028     0.06600
H3079       H  0.92495738  0.48722440  0.21405683     0.08200
H3080       H  0.96135034  0.95694857  0.17810848     0.05000
C3081       C  0.80368950  0.76048085  0.27257265    -0.20800
C3082       C  0.80595036  0.76928542  0.24228388    -0.07400
C3083       C  0.83033126  0.75575971  0.21820665     0.13500
C3084       C  0.85207958  0.73443725  0.22545994    -0.20900
C3085       C  0.85044927  0.72618579  0.25618555    -0.07400
C3086       C  0.82550007  0.73916520  0.27990478     0.13500
C3087       C  0.82099977  0.73025553  0.31258888    -0.24200
H3088       H  0.78473240  0.77053297  0.29074633     0.14800
H3089       H  0.87088651  0.72443693  0.20706739     0.14800
C3090       C  0.83449138  0.76448938  0.18534643    -0.24200
H3091       H  0.79921922  0.74137146  0.32691790     0.05000
H3092       H  0.84199653  0.73801964  0.32953310     0.08200
H3093       H  0.81817857  0.70457855  0.30676899     0.08200
H3094       H  0.83798572  0.79007386  0.19097124     0.08200
H3095       H  0.81298047  0.75731340  0.16902525     0.08200
H3096       H  0.85573674  0.75276778  0.17044684     0.05000
C3097       C  0.99199746  0.84401676  0.36720915    -0.20800
C3098       C  0.99548887  0.86273166  0.40107337    -0.07400
C3099       C  0.69606666  0.84987347  0.39511990     0.13500
C3100       C  0.71371223  0.85819798  0.36975892    -0.20900
C3101       C  0.69822743  0.86443453  0.34195214    -0.07400
C3102       C  0.01112957  0.84874689  0.34066586     0.13500
C3103       C  0.00533909  0.82920825  0.30454813    -0.24200
H3104       H  0.97315987  0.82659422  0.36118030     0.14800
H3105       H  0.73954188  0.86115790  0.37235039     0.14800
C3106       C  0.71344461  0.84359658  0.42481021    -0.24200
H3107       H  0.98506944  0.81271403  0.30308498     0.05000
H3108       H  0.02715258  0.81521575  0.29430064     0.08200
H3109       H  0.99935984  0.84454429  0.28827033     0.08200
H3110       H  0.70784184  0.81965461  0.42602729     0.08200
H3111       H  0.70595806  0.86072652  0.44907489     0.08200
H3112       H  0.73997549  0.84539808  0.42228133     0.05000
C3113       C  0.99765042  0.83744145  0.11784674    -0.20800
C3114       C  0.67847271  0.86265608  0.13993829    -0.07400
C3115       C  0.67705276  0.89171415  0.13271347     0.13500
C3116       C  0.65746765  0.89498940  0.10643120    -0.20900
C3117       C  0.97466568  0.87168659  0.08693392    -0.07400
C3118       C  0.97746776  0.84154155  0.09183622     0.13500
C3119       C  0.96023197  0.81348549  0.06971693    -0.24200
H3120       H  0.99882580  0.81494571  0.12294542     0.14800
H3121       H  0.65594751  0.91788863  0.10235907     0.14800
C3122       C  0.69672808  0.91966402  0.15085879    -0.24200
H3123       H  0.96771431  0.79166586  0.07551335     0.05000
H3124       H  0.96587825  0.81077112  0.04241640     0.08200
H3125       H  0.93398513  0.81590373  0.07402449     0.08200
H3126       H  0.71265327  0.91500031  0.17019373     0.08200
H3127       H  0.68058404  0.93949381  0.16325644     0.08200
H3128       H  0.71226606  0.92662784  0.13205556     0.05000
C3129       C  0.84175995  0.85589464  0.38707179    -0.20800
C3130       C  0.86153327  0.88044892  0.40480190    -0.07400
C3131       C  0.85856252  0.90995061  0.39844712     0.13500
C3132       C  0.83728101  0.91324878  0.37309860    -0.20900
C3133       C  0.81926461  0.88789240  0.35405083    -0.07400
C3134       C  0.82067941  0.85914844  0.36204303     0.13500
C3135       C  0.80022157  0.83124556  0.34553341    -0.24200
H3136       H  0.84276763  0.83354476  0.39257315     0.14800
H3137       H  0.83540156  0.93542999  0.36735408     0.14800
C3138       C  0.87838471  0.93764652  0.41695280    -0.24200
H3139       H  0.81601071  0.81175305  0.33137305     0.05000
H3140       H  0.78220888  0.83586734  0.32799027     0.08200
H3141       H  0.78682851  0.82382245  0.36550688     0.08200
H3142       H  0.90427661  0.93176225  0.41241025     0.08200
H3143       H  0.87285759  0.94416994  0.44471394     0.08200
H3144       H  0.87339413  0.95838497  0.40788375     0.05000
C3145       C  0.82799393  0.91385195  0.12943549    -0.20800
C3146       C  0.84660718  0.88906365  0.10948290    -0.07400
C3147       C  0.84686255  0.86036313  0.11755115     0.13500
C3148       C  0.82585331  0.85603742  0.14240895    -0.20900
C3149       C  0.80485258  0.87975333  0.16059768    -0.07400
C3150       C  0.80736783  0.90976877  0.15532656     0.13500
C3151       C  0.78923410  0.93772478  0.17688203    -0.24200
H3152       H  0.82912506  0.93631072  0.12425118     0.14800
H3153       H  0.82581105  0.83332404  0.14704950     0.14800
C3154       C  0.86976803  0.83396870  0.10180986    -0.24200
H3155       H  0.79626351  0.95947007  0.17068376     0.05000
H3156       H  0.79445636  0.94096417  0.20430279     0.08200
H3157       H  0.76310729  0.93469908  0.17234224     0.08200
H3158       H  0.88528747  0.83871187  0.08202452     0.08200
H3159       H  0.85617032  0.81222804  0.09038124     0.08200
H3160       H  0.88562235  0.82992983  0.12196357     0.05000
C3161       C  0.67894718  0.66306002  0.36867202    -0.20800
C3162       C  0.98976605  0.64556455  0.36053429    -0.07400
C3163       C  0.98116025  0.62574089  0.38072926     0.13500
C3164       C  0.00213874  0.62203774  0.40586113    -0.20900
C3165       C  0.69656024  0.63422679  0.40789907    -0.07400
C3166       C  0.70073729  0.65939967  0.39359748     0.13500
C3167       C  0.72883469  0.68138645  0.40309939    -0.24200
H3168       H  0.68223072  0.68183006  0.35702480     0.14800
H3169       H  0.99519114  0.60645357  0.42074966     0.14800
C3170       C  0.95029064  0.60747412  0.37647369    -0.24200
H3171       H  0.72914495  0.69864554  0.38817242     0.05000
H3172       H  0.75179458  0.66801428  0.39797044     0.08200
H3173       H  0.72731999  0.69454219  0.43054983     0.08200
H3174       H  0.93499213  0.61127645  0.35616328     0.08200
H3175       H  0.93632816  0.61431932  0.40075336     0.08200
H3176       H  0.95584867  0.58214299  0.36998904     0.05000
C3177       C  0.95527592  0.64156910  0.13150851    -0.20800
C3178       C  0.96917480  0.63440537  0.15961456    -0.07400
C3179       C  0.66810134  0.63765320  0.16563920     0.13500
C3180       C  0.68820376  0.64566269  0.14164018    -0.20900
C3181       C  0.67551274  0.65138850  0.11219166    -0.07400
C3182       C  0.97441228  0.64714619  0.10540220     0.13500
C3183       C  0.95833962  0.65389168  0.07525686    -0.24200
H3184       H  0.92928950  0.64152988  0.12929840     0.14800
H3185       H  0.71405883  0.64572897  0.14491024     0.14800
C3186       C  0.68282207  0.62983739  0.19584327    -0.24200
H3187       H  0.93169340  0.65466341  0.07800767     0.05000
H3188       H  0.96442142  0.63547183  0.05144773     0.08200
H3189       H  0.96648642  0.67684955  0.07294220     0.08200
H3190       H  0.67748413  0.60527443  0.19482150     0.08200
H3191       H  0.67280447  0.64557316  0.21987162     0.08200
H3192       H  0.70940190  0.63262280  0.19628197     0.05000
C3193       C  0.82227619  0.59673649  0.36915889    -0.20800
C3194       C  0.82856594  0.61213867  0.40368440    -0.07400
C3195       C  0.85554876  0.63208764  0.41200201     0.13500
C3196       C  0.87341881  0.63848332  0.38568063    -0.20900
C3197       C  0.86632934  0.62419323  0.35127887    -0.07400
C3198       C  0.84115389  0.60231502  0.34278661     0.13500
C3199       C  0.83324143  0.58614683  0.30610425    -0.24200
H3200       H  0.80163759  0.58142422  0.36271643     0.14800
H3201       H  0.89345618  0.65459321  0.39198734     0.14800
C3202       C  0.86650932  0.64579308  0.44838579    -0.24200
H3203       H  0.81210025  0.57054237  0.30397409     0.05000
H3204       H  0.85406047  0.57172706  0.29349834     0.08200
H3205       H  0.82765636  0.60374483  0.29244409     0.08200
H3206       H  0.87027536  0.62677494  0.46053385     0.08200
H3207       H  0.84866285  0.66260873  0.46345722     0.08200
H3208       H  0.88961136  0.65853854  0.44959153     0.05000
C3209       C  0.85562306  0.61225578  0.11485860    -0.20800
C3210       C  0.84232298  0.60923078  0.14546760    -0.07400
C3211       C  0.80854111  0.61082386  0.15009196     0.13500
C3212       C  0.78905094  0.61670081  0.12460165    -0.20900
C3213       C  0.80256666  0.62221795  0.09531410    -0.07400
C3214       C  0.83616201  0.61929144  0.08994322     0.13500
C3215       C  0.85141447  0.62352431  0.05800687    -0.24200
H3216       H  0.88148469  0.61054859  0.11113595     0.14800
H3217       H  0.76320047  0.61847100  0.12828687     0.14800
C3218       C  0.79296620  0.60628033  0.18175253    -0.24200
H3219       H  0.87786640  0.61960817  0.05749273     0.05000
H3220       H  0.84704877  0.64759561  0.05648578     0.08200
H3221       H  0.84092747  0.60660189  0.03523810     0.08200
H3222       H  0.80041051  0.62508618  0.20457493     0.08200
H3223       H  0.80018677  0.58330047  0.18482646     0.08200
H3224       H  0.76627089  0.60686969  0.18038031     0.05000
C3225       C  0.02071309  0.49902457  0.47368829    -0.20800
C3226       C  0.68234753  0.53211620  0.49810737    -0.07400
C3227       C  0.66401756  0.53566238  0.02828062     0.13500
C3228       C  0.64243791  0.00315317  0.02190623    -0.20900
C3229       C  0.97066918  0.98402698  0.00407013    -0.07400
C3230       C  0.97158699  0.99320058  0.47545328     0.13500
C3231       C  0.94914988  0.98090734  0.44590115    -0.24200
H3232       H  0.03894462  0.49563820  0.45386167     0.14800
H3233       H  0.62514830  0.00645106  0.04261021     0.14800
C3234       C  0.66390786  0.56439560  0.05858348    -0.24200
H3235       H  0.02687775  0.44431834  0.43014220     0.05000
H3236       H  0.93838528  0.97050622  0.93993392     0.08200
H3237       H  0.95377258  0.95566929  0.43417990     0.08200
H3238       H  0.65727456  0.58506805  0.05013957     0.08200
H3239       H  0.68467920  0.56748696  0.57009890     0.08200
H3240       H  0.63905275  0.05755541  0.06695858     0.05000
C3241       C  0.82330090  0.72917174  0.47575812    -0.20800
C3242       C  0.80797756  0.73482817  0.00430764    -0.07400
C3243       C  0.81037120  0.76488716  0.02782823     0.13500
C3244       C  0.83158146  0.78665945  0.02075980    -0.20900
C3245       C  0.84929784  0.77994794  0.49335427    -0.07400
C3246       C  0.84591514  0.75023671  0.46942173     0.13500
C3247       C  0.86670415  0.73994859  0.43778532    -0.24200
H3248       H  0.82093679  0.70647100  0.45735957     0.14800
H3249       H  0.83297197  0.80981890  0.03840632     0.14800
C3250       C  0.79040476  0.77463740  0.06011915    -0.24200
H3251       H  0.86191855  0.71536751  0.42308362     0.05000
H3252       H  0.89262239  0.74255144  0.93955998     0.08200
H3253       H  0.86177272  0.75474296  0.42066841     0.08200
H3254       H  0.79763155  0.76106300  0.07780841     0.08200
H3255       H  0.76087665  0.77332528  0.55444263     0.08200
H3256       H  0.79371511  0.79970348  0.07391014     0.05000
O3257       O  0.71464645  0.55848434  0.96582914    -0.81400
O3258       O  0.77787594  0.68833219  0.98544067    -0.66100
O3259       O  0.76128952  0.60593337  0.98934136    -1.12700
C3260       C  0.69532384  0.65271598  0.58522371     1.05500
O3261       O  0.77883763  0.71044433  0.54288375    -0.79300
O3262       O  0.78195957  0.66208896  0.57088553    -0.66900
Ni3263     Ni  0.75301539  0.57317811  0.94826978     1.34900
C3264       C  0.77826875  0.63438400  0.57252602     0.84200
O3265       O  0.80091194  0.63386382  0.95074179    -0.79800
O3266       O  0.79042218  0.58349599  0.92548420    -0.90100
C3267       C  0.78405410  0.71128209  0.51234739     0.83800
O3268       O  0.72626831  0.59667116  0.92711598    -0.68300
O3269       O  0.71845890  0.67227569  0.59184586    -0.87600
C3270       C  0.72160834  0.62556945  0.93104603     0.84600
C3271       C  0.80634802  0.60836495  0.92794803     1.06200
H3272       H  0.71603985  0.66963323  0.51456297     0.38000
O3273       O  0.73457947  0.66068066  0.52253448    -1.10300
O3274       O  0.75457161  0.61748353  0.55885691    -0.66900
Ni3275     Ni  0.72465008  0.61931734  0.52317871     1.26300
O3276       O  0.73649907  0.64674077  0.95313879    -0.67200
O3277       O  0.69147790  0.63325729  0.55613392    -0.79400
C3278       C  0.70634092  0.55768069  0.99561631     0.84000
O3279       O  0.71416614  0.57759005  0.52180101    -0.66600
Ni3280     Ni  0.74833458  0.68901026  0.56461091     1.27400
Ni3281     Ni  0.76961537  0.64696289  0.98616971     1.26100
H3282       H  0.77986016  0.59940366  0.99974157     0.38500
O3283       O  0.88204343  0.80560222  0.95858455    -0.81400
O3284       O  0.94021771  0.93704453  0.98258928    -0.66100
O3285       O  0.92799550  0.85326841  0.98380252    -1.12700
C3286       C  0.86365706  0.89445881  0.58228022     1.05500
O3287       O  0.94021904  0.95869008  0.54034481    -0.79300
O3288       O  0.94654761  0.91123613  0.56714357    -0.66900
Ni3289     Ni  0.92124677  0.82047865  0.94277758     1.34900
C3290       C  0.94673315  0.88309046  0.56798902     0.84200
O3291       O  0.96469659  0.88366099  0.94634200    -0.79800
O3292       O  0.95950167  0.83196275  0.92270570    -0.90100
C3293       C  0.94717809  0.95925796  0.51014087     0.83800
O3294       O  0.89575441  0.84349973  0.91999005    -0.68300
O3295       O  0.88342867  0.91708561  0.58824234    -0.87600
C3296       C  0.88843968  0.87208709  0.92540481     0.84600
C3297       C  0.97274211  0.85814201  0.92477965     1.06200
H3298       H  0.88013757  0.91392613  0.51109086     0.38000
O3299       O  0.89951658  0.90635999  0.51911632    -1.10300
O3300       O  0.92507164  0.86381954  0.55350343    -0.66900
Ni3301     Ni  0.89294072  0.86416130  0.51919688     1.26300
O3302       O  0.90027013  0.89368742  0.94952835    -0.67200
O3303       O  0.86040842  0.87501419  0.55312753    -0.79400
C3304       C  0.87520516  0.80261561  0.98785620     0.84000
O3305       O  0.88534645  0.82162889  0.51643766    -0.66600
Ni3306     Ni  0.91112492  0.93574351  0.56122789     1.27400
Ni3307     Ni  0.93375670  0.89489732  0.98208966     1.26100
H3308       H  0.94736213  0.84750944  0.99357551     0.38500
O3309       O  0.87977025  0.69786950  0.78910591    -0.81400
O3310       O  0.94339741  0.56649880  0.76497463    -0.66100
O3311       O  0.92667372  0.64986852  0.76429437    -1.12700
C3312       C  0.86403007  0.60489334  0.66844727     1.05500
O3313       O  0.94937261  0.54770223  0.70866239    -0.79300
O3314       O  0.95034349  0.59537946  0.67970979    -0.66900
Ni3315     Ni  0.91812319  0.68205428  0.80608371     1.34900
C3316       C  0.94655120  0.62342984  0.67930056     0.84200
O3317       O  0.96548523  0.62012650  0.80198447    -0.79800
O3318       O  0.95521202  0.67049900  0.82866750    -0.90100
C3319       C  0.95441701  0.54628467  0.73896220     0.83800
O3320       O  0.89164800  0.65820533  0.82730566    -0.68300
O3321       O  0.88669497  0.58465536  0.66142935    -0.87600
C3322       C  0.88776905  0.62913715  0.82266498     0.84600
C3323       C  0.96956450  0.64469356  0.82649155     1.06200
H3324       H  0.88532194  0.58762231  0.73808911     0.38000
O3325       O  0.90394855  0.59665708  0.73030461    -1.10300
O3326       O  0.92378275  0.64074350  0.69519741    -0.66900
Ni3327     Ni  0.89361163  0.63814654  0.73064006     1.26300
O3328       O  0.90136024  0.60815780  0.79876446    -0.67200
O3329       O  0.86085515  0.62490787  0.69739247    -0.79400
C3330       C  0.87184122  0.69917348  0.75943700     0.84000
O3331       O  0.88303378  0.67986814  0.73289122    -0.66600
Ni3332     Ni  0.91767161  0.56844705  0.68779858     1.27400
Ni3333     Ni  0.93491503  0.60836178  0.76592846     1.26100
H3334       H  0.94538462  0.65656709  0.75413420     0.38500
O3335       O  0.71577983  0.95146990  0.78817060    -0.81400
O3336       O  0.78137467  0.81764971  0.76314586    -0.66100
O3337       O  0.75841041  0.90033101  0.76397468    -1.12700
C3338       C  0.69601124  0.85654953  0.66893478     1.05500
O3339       O  0.77216656  0.79173137  0.70905861    -0.79300
O3340       O  0.77997662  0.84100937  0.68390496    -0.66900
Ni3341     Ni  0.74752944  0.92946624  0.80713708     1.34900
C3342       C  0.77902526  0.86903813  0.68242898     0.84200
O3343       O  0.80357196  0.87253254  0.79525709    -0.79800
O3344       O  0.77851860  0.91228326  0.83240535    -0.90100
C3345       C  0.78460645  0.79371655  0.73788343     0.83800
O3346       O  0.71461937  0.90350618  0.81622878    -0.68300
O3347       O  0.71759801  0.83554765  0.66254193    -0.87600
C3348       C  0.71860720  0.87557003  0.81687284     0.84600
C3349       C  0.80034337  0.89131610  0.82483129     1.06200
H3350       H  0.71672747  0.83844088  0.74293427     0.38000
O3351       O  0.73450600  0.84630924  0.73249182    -1.10300
O3352       O  0.75631938  0.88776074  0.69607253    -0.66900
Ni3353     Ni  0.72482779  0.88788220  0.73137933     1.26300
O3354       O  0.74066978  0.85775325  0.80043974    -0.67200
O3355       O  0.69162507  0.87501083  0.69849985    -0.79400
C3356       C  0.70713518  0.95134935  0.75830932     0.84000
O3357       O  0.71493357  0.92955143  0.73209137    -0.66600
Ni3358     Ni  0.74444675  0.81650974  0.68947463     1.27400
Ni3359     Ni  0.76952183  0.85895738  0.76389436     1.26100
H3360       H  0.77618628  0.90906159  0.75442916     0.38500
C3361       C  0.66986970  0.53261889  0.77201716    -0.20800
C3362       C  0.97573450  0.52151564  0.74432763    -0.07400
C3363       C  0.97310351  0.48996523  0.72495774     0.13500
C3364       C  0.99951751  0.96770238  0.72977739    -0.20900
C3365       C  0.68547169  0.97642780  0.75393548    -0.07400
C3366       C  0.68712379  0.00771094  0.77469534     0.13500
C3367       C  0.71975767  0.52259876  0.80191628    -0.24200
H3368       H  0.67210012  0.55702391  0.78615916     0.14800
H3369       H  0.99723196  0.94324960  0.71588482     0.14800
C3370       C  0.95297428  0.97810077  0.69572569    -0.24200
H3371       H  0.71871614  0.54830740  0.81327908     0.05000
H3372       H  0.73697016  0.01272620  0.78956612     0.08200
H3373       H  0.70951934  0.00709854  0.82207172     0.08200
H3374       H  0.94951880  0.48988408  0.67798541     0.06600
H3375       H  0.92285389  0.48564154  0.71169593     0.08200
H3376       H  0.95378981  0.95233537  0.68477378     0.05000
C3377       C  0.80459708  0.76077561  0.77347656    -0.20800
C3378       C  0.80491912  0.76764174  0.74200726    -0.07400
C3379       C  0.82687781  0.75157751  0.71635054     0.13500
C3380       C  0.84801286  0.72955223  0.72308663    -0.20900
C3381       C  0.84849424  0.72320817  0.75494439    -0.07400
C3382       C  0.82617242  0.73908560  0.78050212     0.13500
C3383       C  0.82443596  0.73333255  0.81510160    -0.24200
H3384       H  0.78733985  0.77266510  0.79281170     0.14800
H3385       H  0.86484654  0.71760142  0.70328697     0.14800
C3386       C  0.82932787  0.75834226  0.68223894    -0.24200
H3387       H  0.80478405  0.74702383  0.83116100     0.05000
H3388       H  0.84733775  0.74044579  0.82898109     0.08200
H3389       H  0.81976063  0.70825664  0.81214118     0.08200
H3390       H  0.83441499  0.78348758  0.68608709     0.08200
H3391       H  0.80653500  0.75194653  0.66793415     0.08200
H3392       H  0.84898808  0.74475511  0.66610471     0.05000
C3393       C  0.99015476  0.84503195  0.86462102    -0.20800
C3394       C  0.99694210  0.85987637  0.89908825    -0.07400
C3395       C  0.69619641  0.85471895  0.89616801     0.13500
C3396       C  0.71398276  0.86235787  0.87057996    -0.20900
C3397       C  0.69918542  0.86431797  0.84054308    -0.07400
C3398       C  0.00866777  0.85103278  0.83838966     0.13500
C3399       C  0.99972622  0.83609428  0.80169169    -0.24200
H3400       H  0.96925770  0.83005016  0.85818382     0.14800
H3401       H  0.73931157  0.86794842  0.87450028     0.14800
C3402       C  0.71305729  0.85222060  0.92788760    -0.24200
H3403       H  0.97809254  0.82110325  0.79956978     0.05000
H3404       H  0.01987872  0.82124555  0.78812465     0.08200
H3405       H  0.99442541  0.85444060  0.78896655     0.08200
H3406       H  0.70899860  0.82868595  0.93115421     0.08200
H3407       H  0.70389510  0.87020938  0.95069952     0.08200
H3408       H  0.73945839  0.85563471  0.92632699     0.05000
C3409       C  0.99689105  0.83919566  0.61813923    -0.20800
C3410       C  0.67697574  0.86072111  0.64027064    -0.07400
C3411       C  0.67745789  0.88904173  0.63144178     0.13500
C3412       C  0.65799845  0.89236328  0.60510729    -0.20900
C3413       C  0.97207523  0.87404192  0.58905724    -0.07400
C3414       C  0.97632965  0.84352416  0.59250193     0.13500
C3415       C  0.96018411  0.81535820  0.56921622    -0.24200
H3416       H  0.99921149  0.81627670  0.62200720     0.14800
H3417       H  0.65804042  0.91480231  0.59981952     0.14800
C3418       C  0.69904499  0.91604622  0.64791381    -0.24200
H3419       H  0.96867416  0.79337364  0.57394302     0.05000
H3420       H  0.96573883  0.81391754  0.54218092     0.08200
H3421       H  0.93385776  0.81661539  0.57342425     0.08200
H3422       H  0.71397971  0.91165102  0.66813149     0.08200
H3423       H  0.68437254  0.93732886  0.65894129     0.08200
H3424       H  0.71554639  0.92054392  0.62835179     0.05000
C3425       C  0.84215988  0.85647081  0.88742927    -0.20800
C3426       C  0.86456612  0.87965333  0.90219215    -0.07400
C3427       C  0.86468776  0.90768923  0.89249124     0.13500
C3428       C  0.84275985  0.91130077  0.86775085    -0.20900
C3429       C  0.82147697  0.88731545  0.85202129    -0.07400
C3430       C  0.82091485  0.85970131  0.86243196     0.13500
C3431       C  0.79850415  0.83282806  0.84819423    -0.24200
H3432       H  0.84144550  0.83513092  0.89509343     0.14800
H3433       H  0.84292775  0.93247654  0.85980455     0.14800
C3434       C  0.88866930  0.93314412  0.90667507    -0.24200
H3435       H  0.81298407  0.81161184  0.83626357     0.05000
H3436       H  0.78191637  0.83678411  0.82900916     0.08200
H3437       H  0.78376338  0.82852122  0.86916592     0.08200
H3438       H  0.91346052  0.92354163  0.90140988     0.08200
H3439       H  0.88485394  0.94292453  0.93459940     0.08200
H3440       H  0.88625776  0.95261497  0.89494098     0.05000
C3441       C  0.82695802  0.91396075  0.63182947    -0.20800
C3442       C  0.84505395  0.88936362  0.61083594    -0.07400
C3443       C  0.84569434  0.86027142  0.61803519     0.13500
C3444       C  0.82485785  0.85519377  0.64257103    -0.20900
C3445       C  0.80401625  0.87864334  0.66140530    -0.07400
C3446       C  0.80678797  0.90919517  0.65764497     0.13500
C3447       C  0.78960760  0.93700460  0.68085153    -0.24200
H3448       H  0.82812350  0.93678554  0.62753413     0.14800
H3449       H  0.82477514  0.83216204  0.64641304     0.14800
C3450       C  0.86885212  0.83426285  0.60178563    -0.24200
H3451       H  0.79723321  0.95913900  0.67590313     0.05000
H3452       H  0.79521158  0.93879118  0.70789150     0.08200
H3453       H  0.76332756  0.93504028  0.67680651     0.08200
H3454       H  0.88448147  0.83969460  0.58252264     0.08200
H3455       H  0.85549369  0.81252701  0.58970649     0.08200
H3456       H  0.88464886  0.82982086  0.62177119     0.05000
C3457       C  0.67536210  0.66628881  0.87448904    -0.20800
C3458       C  0.98994595  0.64178844  0.85523022    -0.07400
C3459       C  0.98284432  0.61907794  0.87239225     0.13500
C3460       C  0.00297330  0.61576137  0.89837097    -0.20900
C3461       C  0.69734083  0.63399296  0.90840290    -0.07400
C3462       C  0.69742389  0.66232566  0.89912361     0.13500
C3463       C  0.72120353  0.68794923  0.91389654    -0.24200
H3464       H  0.67584254  0.68744404  0.86652229     0.14800
H3465       H  0.99688653  0.59811842  0.91091028     0.14800
C3466       C  0.95423559  0.59752982  0.86453877    -0.24200
H3467       H  0.71829138  0.70785225  0.90291141     0.05000
H3468       H  0.74617047  0.67889806  0.90833540     0.08200
H3469       H  0.71750398  0.69704125  0.94191761     0.08200
H3470       H  0.93823805  0.60182796  0.84505127     0.08200
H3471       H  0.93957412  0.60042980  0.88807273     0.08200
H3472       H  0.96273963  0.57296269  0.85544803     0.05000
C3473       C  0.95407381  0.64406055  0.62983164    -0.20800
C3474       C  0.96789461  0.63553309  0.65717585    -0.07400
C3475       C  0.66819825  0.63549706  0.66600937     0.13500
C3476       C  0.68753442  0.64332878  0.64138765    -0.20900
C3477       C  0.67379091  0.65046260  0.61318159    -0.07400
C3478       C  0.97334130  0.65069393  0.60443742     0.13500
C3479       C  0.95752608  0.65822206  0.57458910    -0.24200
H3480       H  0.92812432  0.64403375  0.62746791     0.14800
H3481       H  0.71351619  0.64219755  0.64312814     0.14800
C3482       C  0.68395099  0.62615310  0.69481389    -0.24200
H3483       H  0.93087043  0.65899360  0.57717042     0.05000
H3484       H  0.96372176  0.64018696  0.55049594     0.08200
H3485       H  0.96576926  0.68138000  0.57298373     0.08200
H3486       H  0.67805988  0.60157905  0.69319496     0.08200
H3487       H  0.67534422  0.64159754  0.71968663     0.08200
H3488       H  0.71059869  0.62802786  0.69390293     0.05000
C3489       C  0.82323987  0.59428765  0.86702909    -0.20800
C3490       C  0.83074929  0.60870409  0.90148507    -0.07400
C3491       C  0.85914708  0.62668112  0.90938920     0.13500
C3492       C  0.87733687  0.63234915  0.88282334    -0.20900
C3493       C  0.86858014  0.61975064  0.84854988    -0.07400
C3494       C  0.84199421  0.59950657  0.84038994     0.13500
C3495       C  0.83239587  0.58488538  0.80384518    -0.24200
H3496       H  0.80162003  0.58031132  0.86090334     0.14800
H3497       H  0.89851247  0.64701618  0.88883877     0.14800
C3498       C  0.87081192  0.63948682  0.94560871    -0.24200
H3499       H  0.81028635  0.57057986  0.80204913     0.05000
H3500       H  0.85203546  0.56943875  0.79000236     0.08200
H3501       H  0.82764832  0.60338522  0.79117815     0.08200
H3502       H  0.87278638  0.62027464  0.95777545     0.08200
H3503       H  0.85414850  0.65767386  0.96068928     0.08200
H3504       H  0.89493192  0.65038942  0.94651397     0.05000
C3505       C  0.85468376  0.61483638  0.61277271    -0.20800
C3506       C  0.84186102  0.60702310  0.64112272    -0.07400
C3507       C  0.80817676  0.60475413  0.64446675     0.13500
C3508       C  0.78804267  0.61180514  0.62016071    -0.20900
C3509       C  0.80081601  0.62228633  0.59350334    -0.07400
C3510       C  0.83453731  0.62311783  0.58921425     0.13500
C3511       C  0.84927744  0.63267907  0.55990921    -0.24200
H3512       H  0.88055281  0.61598805  0.61001529     0.14800
H3513       H  0.76214593  0.61068658  0.62298651     0.14800
C3514       C  0.79347715  0.59504243  0.67366789    -0.24200
H3515       H  0.87595031  0.63067377  0.55961831     0.05000
H3516       H  0.84308707  0.65731588  0.56201051     0.08200
H3517       H  0.84014253  0.61742484  0.53533127     0.08200
H3518       H  0.79948475  0.61224779  0.69831214     0.08200
H3519       H  0.80289879  0.57173798  0.67353533     0.08200
H3520       H  0.76681521  0.59355842  0.67177439     0.05000
C3521       C  0.02427673  0.49585646  0.97618422    -0.20800
C3522       C  0.68353523  0.53303905  0.99896072    -0.07400
C3523       C  0.66253963  0.53424661  0.52710803     0.13500
C3524       C  0.64410001  0.00062253  0.52024533    -0.20900
C3525       C  0.96963803  0.98372761  0.50571397    -0.07400
C3526       C  0.97873291  0.98829566  0.97184918     0.13500
C3527       C  0.96496814  0.96838260  0.93880607    -0.24200
H3528       H  0.04395991  0.49176166  0.95787369     0.14800
H3529       H  0.62533360  0.00451688  0.53955856     0.14800
C3530       C  0.66103543  0.56320910  0.55710555    -0.24200
H3531       H  0.03419970  0.43927933  0.93819368     0.05000
H3532       H  0.92380915  0.98492968  0.45490661     0.08200
H3533       H  0.97251887  0.94370328  0.93426796     0.08200
H3534       H  0.65395002  0.58350958  0.54817131     0.08200
H3535       H  0.68790134  0.56774310  0.07089557     0.08200
H3536       H  0.63699165  0.05614673  0.56197898     0.05000
C3537       C  0.82581316  0.72822193  0.97362756    -0.20800
C3538       C  0.80464597  0.73633035  0.50590597    -0.07400
C3539       C  0.80716307  0.76650879  0.52916718     0.13500
C3540       C  0.82891451  0.78795929  0.52213951    -0.20900
C3541       C  0.85109063  0.77925634  0.99136086    -0.07400
C3542       C  0.84733461  0.74993670  0.96682899     0.13500
C3543       C  0.86645003  0.74085211  0.93394245    -0.24200
H3544       H  0.82364901  0.70550520  0.95515353     0.14800
H3545       H  0.83007527  0.81132111  0.53937558     0.14800
C3546       C  0.78676228  0.77669818  0.56111397    -0.24200
H3547       H  0.86138324  0.71651990  0.91862214     0.05000
H3548       H  0.89251867  0.74166351  0.44500773     0.08200
H3549       H  0.86007477  0.75639740  0.91803604     0.08200
H3550       H  0.79333025  0.76311824  0.57901419     0.08200
H3551       H  0.76446361  0.77093591  0.05385105     0.08200
H3552       H  0.79036603  0.80173913  0.57483417     0.05000
loop_ 
_geom_bond_atom_site_label_1 
_geom_bond_atom_site_label_2 
_geom_bond_distance 
_geom_bond_site_symmetry_2 
_ccdc_geom_bond_type 
O1           Ni7   1.928       .  S
O1           C22   1.271       .  A
O2          Ni25   1.885       .  S
O2          C307   1.263       .  A
O3           Ni7   1.926       .  S
O3          Ni25   1.910       .  S
O3         Ni315   1.922       .  S
O3           H26   0.966       .  S
C4           O21   1.271       .  A
C4           O13   1.277       .  A
C4          C221   1.473       .  S
O5          Ni24   1.934       .  S
O5           C11   1.273       .  A
O6          Ni24   1.907       .  S
O6            C8   1.267       .  A
Ni7          O10   1.933       .  S
Ni7          O12   1.890       .  S
C8           O18   1.272       .  A
C8          C253   1.477       .  S
O9          Ni25   1.899       .  S
O9           C15   1.264       .  A
O10          C15   1.271       .  A
C11         O298   1.269   1_554  A
C11         C282   1.485       .  S
O12          C14   1.270       .  A
O13         Ni24   1.944       .  S
C14          O20   1.276       .  A
C14         C205   1.495       .  S
C15         C234   1.483       .  S
H16          O17   0.966       .  S
O17         Ni19   1.900       .  S
O17         Ni24   1.914       .  S
O17        Ni321   1.905   1_554  S
O18         Ni19   1.940       .  S
Ni19         O23   1.895       .  S
Ni19         O21   1.902       .  S
Ni19        O299   1.915   1_554  S
O20         Ni25   1.946       .  S
C22         O319   1.262       .  A
C22         C266   1.479       .  S
O23         C318   1.262   1_554  A
Ni25        O313   1.905       .  S
O27         Ni33   1.935       .  S
O27          C48   1.271       .  A
O28         Ni51   1.896       .  S
O28         C333   1.262       .  A
O29         Ni33   1.922       .  S
O29         Ni51   1.902       .  S
O29        Ni341   1.899       .  S
O29          H52   0.966       .  S
C30          O47   1.272       .  A
C30          O39   1.273       .  A
C30         C186   1.468       .  S
O31         Ni50   1.931       .  S
O31          C37   1.272       .  A
O32         Ni50   1.892       .  S
O32          C34   1.269       .  A
Ni33         O36   1.926       .  S
Ni33         O38   1.898       .  S
C34          O44   1.271       .  A
C34         C157   1.490       .  S
O35         Ni51   1.889       .  S
O35          C41   1.267       .  A
O36          C41   1.275       .  A
C37         O324   1.264   1_554  A
C37         C269   1.499       .  S
O38          C40   1.269       .  A
O39         Ni50   1.928       .  S
C40          O46   1.269       .  A
C40         C170   1.485       .  S
C41         C138   1.472       .  S
H42          O43   0.966       .  S
O43         Ni45   1.909       .  S
O43         Ni50   1.908       .  S
O43        Ni347   1.899   1_554  S
O44         Ni45   1.936       .  S
Ni45         O49   1.901       .  S
Ni45         O47   1.898       .  S
Ni45        O325   1.901   1_554  S
O46         Ni51   1.919       .  S
C48         O345   1.264       .  A
C48         C285   1.478       .  S
O49         C344   1.268   1_554  A
Ni51        O339   1.910       .  S
O53         Ni59   1.930       .  S
O53          C74   1.271       .  A
O54         Ni77   1.899       .  S
O54          C63   1.266       .  A
O55         Ni59   1.930       .  S
O55         Ni77   1.911       .  S
O55         Ni71   1.921       .  S
O55          H78   0.966       .  S
C56          O73   1.267       .  A
C56          O65   1.275       .  A
C56         C250   1.480       .  S
O57         Ni76   1.936       .  S
O57          C63   1.273       .  A
O58         Ni76   1.902       .  S
O58          C60   1.268       .  A
Ni59         O62   1.940       .  S
Ni59         O64   1.896       .  S
C60          O70   1.275       .  A
C60         C218   1.473       .  S
O61         Ni77   1.902       .  S
O61          C67   1.266       .  A
O62          C67   1.272       .  A
C63         C106   1.485       .  S
O64          C66   1.268       .  A
O65         Ni76   1.947       .  S
C66          O72   1.277       .  A
C66         C237   1.469       .  S
C67         C202   1.478       .  S
H68          O69   0.966       .  S
O69         Ni77   1.911       .  S
O69         Ni71   1.904       .  S
O69         Ni76   1.925       .  S
O70         Ni71   1.945       .  S
Ni71         O75   1.898       .  S
Ni71         O73   1.902       .  S
O72         Ni77   1.946       .  S
C74          O75   1.265       .  A
C74         C125   1.483       .  S
O79         Ni85   1.935       .  S
O79         C100   1.271       .  A
O80        Ni103   1.896       .  S
O80          C89   1.262       .  A
O81         Ni85   1.926       .  S
O81        Ni103   1.908       .  S
O81         Ni97   1.908       .  S
O81         H104   0.966       .  S
C82          O99   1.266       .  A
C82          O91   1.268       .  A
C82         C154   1.469       .  S
O83        Ni102   1.925       .  S
O83          C89   1.267       .  A
O84        Ni102   1.883       .  S
O84          C86   1.269       .  A
Ni85         O88   1.941       .  S
Ni85         O90   1.893       .  S
C86          O96   1.278       .  A
C86         C189   1.489       .  S
O87        Ni103   1.889       .  S
O87          C93   1.264       .  A
O88          C93   1.274       .  A
C89         C122   1.479       .  S
O90          C92   1.266       .  A
O91        Ni102   1.925       .  S
C92          O98   1.271       .  A
C92         C141   1.458       .  S
C93         C173   1.469       .  S
H94          O95   0.966       .  S
O95        Ni103   1.912       .  S
O95         Ni97   1.914       .  S
O95        Ni102   1.923       .  S
O96         Ni97   1.953       .  S
Ni97        O101   1.902       .  S
Ni97         O99   1.899       .  S
O98        Ni103   1.930       .  S
C100        O101   1.268       .  A
C100        C109   1.490       .  S
C105        H112   1.084       .  S
C105       C2474   1.407   1_455  A
C105        C702   1.407       .  A
C106        C107   1.416   1_545  A
C106       C1289   1.407       .  A
C107        C700   1.404       .  A
C107        C706   1.508       .  S
C108        H113   1.083       .  S
C108        C699   1.407       .  A
C108       C1293   1.406       .  A
C109        C110   1.418       .  A
C109       C2476   1.405   1_455  A
C110        C697   1.408       .  A
C110        C703   1.508       .  S
C111        C702   1.508       .  S
C111        H115   1.111       .  S
C111        H708   1.111       .  S
C111        H709   1.109       .  S
C114        C699   1.508       .  S
C114        H120   1.111       .  S
C114        H710   1.110       .  S
C114        H711   1.110       .  S
H116        C703   1.110       .  S
H117        C703   1.109       .  S
H118        C706   1.109       .  S
H119        C706   1.110       .  S
C121        H128   1.084       .  S
C121        C122   1.401       .  A
C121        C126   1.403       .  A
C122        C123   1.417       .  A
C123        C124   1.404       .  A
C123        C130   1.509       .  S
C124        H129   1.084       .  S
C124        C125   1.404       .  A
C125        C126   1.418       .  A
C126        C127   1.508       .  S
C127        H131   1.111       .  S
C127        H132   1.109       .  S
C127        H133   1.111       .  S
C130        H134   1.111       .  S
C130        H135   1.109       .  S
C130        H136   1.111       .  S
C137        H144   1.084       .  S
C137        C138   1.406       .  A
C137        C142   1.402       .  A
C138       C1323   1.416       .  A
C139        C140   1.399       .  A
C139       C2506   1.409   1_455  A
C139        C146   1.507       .  S
C140        H145   1.083       .  S
C140        C141   1.402       .  A
C141       C2510   1.407   1_455  A
C142       C1325   1.408       .  A
C142        C143   1.507       .  S
C143        H147   1.111       .  S
C143        H148   1.110       .  S
C143        H149   1.111       .  S
C146        H150   1.110       .  S
C146        H151   1.109       .  S
C146        H152   1.111       .  S
C153        H160   1.084       .  S
C153        C158   1.408       .  A
C153       C1338   1.402       .  A
C154        C155   1.411       .  A
C154       C2521   1.403   1_455  A
C155        C156   1.388   1_455  A
C155        C162   1.505       .  S
C156        H161   1.084       .  S
C156       C2525   1.405       .  A
C157        C158   1.422       .  A
C157       C1340   1.405       .  A
C158        C159   1.507       .  S
C159        H163   1.111       .  S
C159        H164   1.110       .  S
C159        H165   1.104       .  S
C162        H166   1.097       .  S
C162        H167   1.109       .  S
C162        H168   1.111       .  S
C169        H176   1.085       .  S
C169        C170   1.402       .  A
C169        C174   1.393       .  A
C170        C171   1.421       .  A
C171        C172   1.405       .  A
C171        C178   1.502       .  S
C172        H177   1.084       .  S
C172        C173   1.398       .  A
C173        C174   1.416       .  A
C174        C175   1.505       .  S
C175        H179   1.109       .  S
C175        H180   1.098       .  S
C175        H181   1.111       .  S
C178        H182   1.110       .  S
C178        H183   1.110       .  S
C178        H184   1.111       .  S
C185        H192   1.084       .  S
C185        C186   1.402       .  A
C185        C190   1.407       .  A
C186        C187   1.410       .  A
C187        C188   1.389       .  A
C187        C194   1.507       .  S
C188        H193   1.084       .  S
C188        C189   1.408       .  A
C189        C190   1.421       .  A
C190        C191   1.505       .  S
C191        H195   1.111       .  S
C191        H196   1.110       .  S
C191        H197   1.103       .  S
C194        H198   1.100       .  S
C194        H199   1.109       .  S
C194        H200   1.111       .  S
C201        H208   1.084       .  S
C201        C206   1.413       .  A
C201       C2570   1.403   1_455  A
C202        C203   1.415       .  A
C202       C1385   1.405       .  A
C203        C204   1.393       .  A
C203        C210   1.507       .  S
C204        H209   1.085       .  S
C204       C1389   1.404       .  A
C205        C206   1.423       .  A
C205       C2572   1.405       .  A
C206        C207   1.507       .  S
C207        H211   1.111       .  S
C207        H212   1.111       .  S
C207        H213   1.110       .  S
C210        H214   1.097       .  S
C210        H215   1.111       .  S
C210        H216   1.111       .  S
C217        H224   1.084       .  S
C217        C218   1.402       .  A
C217        C222   1.402       .  A
C218       C1403   1.412       .  A
C219        C220   1.403       .  A
C219       C2586   1.413   1_455  A
C219        C226   1.507       .  S
C220        H225   1.084       .  S
C220        C221   1.402       .  A
C221       C2590   1.412   1_455  A
C222       C1405   1.413       .  A
C222        C223   1.508       .  S
C223        H227   1.111       .  S
C223        H228   1.109       .  S
C223        H229   1.110       .  S
C226        H230   1.109       .  S
C226        H231   1.110       .  S
C226        H232   1.111       .  S
C233        H240   1.084       .  S
C233        C234   1.409       .  A
C233        C238   1.405       .  A
C234        C235   1.417       .  A
C235        C236   1.403       .  A
C235        C242   1.509       .  S
C236        H241   1.085       .  S
C236        C237   1.401       .  A
C237        C238   1.406       .  A
C238        C239   1.506       .  S
C239        H243   1.111       .  S
C239        H244   1.110       .  S
C239        H245   1.111       .  S
C242        H246   1.110       .  S
C242        H247   1.109       .  S
C242        H248   1.111       .  S
C249        H256   1.084       .  S
C249        C250   1.405       .  A
C249        C254   1.406       .  A
C250        C251   1.414       .  A
C251        C252   1.405       .  A
C251        C258   1.507       .  S
C252        H257   1.084       .  S
C252        C253   1.403       .  A
C253        C254   1.412       .  A
C254        C255   1.507       .  S
C255        H259   1.111       .  S
C255        H260   1.109       .  S
C255        H261   1.111       .  S
C258        H262   1.109       .  S
C258        H263   1.110       .  S
C258        H264   1.111       .  S
C265        H272   1.083       .  S
C265       C1450   1.408       .  A
C265        C862   1.405   1_545  A
C266       C2633   1.403   1_455  A
C266        C563   1.413       .  A
C267        C562   1.421   1_554  A
C267        C860   1.404   1_455  A
C267        C274   1.511       .  S
C268        H273   1.084       .  S
C268        C859   1.403       .  A
C268       C2637   1.406       .  A
C269       C1452   1.408       .  A
C269        C566   1.420   1_554  A
C270        C857   1.402       .  A
C270        C565   1.421       .  A
C270        C271   1.506       .  S
C271        H277   1.109       .  S
C271        H867   1.111       .  S
C271        H572   1.106       .  S
C274        H278   1.110       .  S
C274        H575   1.110       .  S
C274        H872   1.111       .  S
H275        C863   1.111       .  S
H276        C567   1.109       .  S
H279        C570   1.111       .  S
H280        C866   1.111       .  S
C281        H288   1.084       .  S
C281        C286   1.401       .  A
C281        C578   1.407       .  A
C282        C283   1.417       .  A
C282        C577   1.406   1_554  A
C283        C284   1.402       .  A
C283        C290   1.510       .  S
C284        H289   1.083       .  S
C284        C581   1.404   1_554  A
C285        C286   1.413       .  A
C285        C580   1.404       .  A
C286        C287   1.508       .  S
C287        H291   1.111       .  S
C287        H293   1.110       .  S
C287        H588   1.110       .  S
C290        H294   1.109       .  S
C290        H296   1.111       .  S
C290        H591   1.110       .  S
H292        C583   1.110       .  S
H295        C586   1.110       .  S
O297       Ni303   1.935       .  S
O297        C318   1.273       .  A
O298       Ni321   1.900       .  S
O299       Ni303   1.918       .  S
O299       Ni321   1.911       .  S
O299        H322   0.966       .  S
C300        O317   1.268       .  A
C300        O309   1.275       .  A
C300        C517   1.473       .  S
O301       Ni320   1.938       .  S
O301        C307   1.273       .  A
O302       Ni320   1.910       .  S
O302        C304   1.270       .  A
Ni303       O306   1.926       .  S
Ni303       O308   1.894       .  S
C304        O314   1.274       .  A
C304        C549   1.478       .  S
O305       Ni321   1.903       .  S
O305        C311   1.269       .  A
O306        C311   1.273       .  A
C307        C578   1.480       .  S
O308        C310   1.270       .  A
O309       Ni320   1.943       .  S
C310        O316   1.276       .  A
C310        C501   1.495       .  S
C311        C530   1.476       .  S
H312        O313   0.966       .  S
O313       Ni315   1.899       .  S
O313       Ni320   1.922       .  S
O314       Ni315   1.946       .  S
Ni315       O319   1.891       .  S
Ni315       O317   1.903       .  S
O316       Ni321   1.942       .  S
C318        C562   1.495       .  S
O323       Ni329   1.939       .  S
O323        C344   1.273       .  A
O324       Ni347   1.902       .  S
O325       Ni329   1.914       .  S
O325       Ni347   1.902       .  S
O325        H348   0.966       .  S
C326        O343   1.268       .  A
C326        O335   1.273       .  A
C326        C482   1.474       .  S
O327       Ni346   1.935       .  S
O327        C333   1.273       .  A
O328       Ni346   1.890       .  S
O328        C330   1.269       .  A
Ni329       O332   1.929       .  S
Ni329       O334   1.903       .  S
C330        O340   1.275       .  A
C330        C453   1.492       .  S
O331       Ni347   1.882       .  S
O331        C337   1.265       .  A
O332        C337   1.276       .  A
C333        C565   1.499       .  S
O334        C336   1.271       .  A
O335       Ni346   1.935       .  S
C336        O342   1.270       .  A
C336        C466   1.485       .  S
C337        C434   1.472       .  S
H338        O339   0.966       .  S
O339       Ni341   1.911       .  S
O339       Ni346   1.914       .  S
O340       Ni341   1.947       .  S
Ni341       O345   1.893       .  S
Ni341       O343   1.898       .  S
O342       Ni347   1.918       .  S
C344        C581   1.487       .  S
O349       Ni355   1.933       .  S
O349        C370   1.272       .  A
O350       Ni373   1.888       .  S
O350        C359   1.263       .  A
O351       Ni355   1.930       .  S
O351       Ni373   1.907       .  S
O351       Ni367   1.919       .  S
O351        H374   0.966       .  S
C352        O369   1.267       .  A
C352        O361   1.276       .  A
C352        C546   1.481       .  S
O353       Ni372   1.939       .  S
O353        C359   1.273       .  A
O354       Ni372   1.900       .  S
O354        C356   1.268       .  A
Ni355       O358   1.944       .  S
Ni355       O360   1.898       .  S
C356        O366   1.275       .  A
C356        C514   1.471       .  S
O357       Ni373   1.904       .  S
O357        C363   1.266       .  A
O358        C363   1.273       .  A
C359        C402   1.485       .  S
O360        C362   1.268       .  A
O361       Ni372   1.950       .  S
C362        O368   1.273       .  A
C362        C533   1.466       .  S
C363        C498   1.481       .  S
H364        O365   0.966       .  S
O365       Ni373   1.910       .  S
O365       Ni367   1.901       .  S
O365       Ni372   1.925       .  S
O366       Ni367   1.944       .  S
Ni367       O371   1.892       .  S
Ni367       O369   1.901       .  S
O368       Ni373   1.938       .  S
C370        O371   1.265       .  A
C370        C421   1.483       .  S
O375       Ni381   1.936       .  S
O375        C396   1.272       .  A
O376       Ni399   1.896       .  S
O376        C385   1.263       .  A
O377       Ni381   1.925       .  S
O377       Ni399   1.905       .  S
O377       Ni393   1.908       .  S
O377        H400   0.966       .  S
C378        O395   1.267       .  A
C378        O387   1.268       .  A
C378        C450   1.472       .  S
O379       Ni398   1.919       .  S
O379        C385   1.267       .  A
O380       Ni398   1.887       .  S
O380        C382   1.270       .  A
Ni381       O384   1.943       .  S
Ni381       O386   1.893       .  S
C382        O392   1.278       .  A
C382        C485   1.490       .  S
O383       Ni399   1.896       .  S
O383        C389   1.267       .  A
O384        C389   1.275       .  A
C385        C418   1.478       .  S
O386        C388   1.266       .  A
O387       Ni398   1.926       .  S
C388        O394   1.272       .  A
C388        C437   1.458       .  S
C389        C469   1.474       .  S
H390        O391   0.966       .  S
O391       Ni399   1.919       .  S
O391       Ni393   1.912       .  S
O391       Ni398   1.924       .  S
O392       Ni393   1.953       .  S
Ni393       O397   1.898       .  S
Ni393       O395   1.904       .  S
O394       Ni399   1.931       .  S
C396        O397   1.266       .  A
C396        C405   1.487       .  S
C401        H408   1.084       .  S
C401       C2770   1.407   1_455  A
C401        C998   1.403       .  A
C402       C1585   1.408       .  A
C402        C403   1.415   1_545  A
C403        C996   1.403       .  A
C403       C1002   1.508       .  S
C404        H409   1.084       .  S
C404        C995   1.405       .  A
C404       C1589   1.405       .  A
C405       C2772   1.406   1_455  A
C405        C406   1.417       .  A
C406        C993   1.406   1_455  A
C406        C999   1.507       .  S
C407        C998   1.508       .  S
C407        H411   1.111       .  S
C407       H1004   1.110       .  S
C407       H1005   1.109       .  S
C410        C995   1.508       .  S
C410       H1006   1.109       .  S
C410       H1007   1.110       .  S
C410        H416   1.111       .  S
H412        C999   1.110       .  S
H413        C999   1.109       .  S
H414       C1002   1.109       .  S
H415       C1002   1.110       .  S
C417        H424   1.084       .  S
C417        C418   1.401       .  A
C417        C422   1.403       .  A
C418        C419   1.416       .  A
C419        C420   1.402       .  A
C419        C426   1.510       .  S
C420        H425   1.084       .  S
C420        C421   1.405       .  A
C421        C422   1.418       .  A
C422        C423   1.508       .  S
C423        H427   1.111       .  S
C423        H428   1.110       .  S
C423        H429   1.110       .  S
C426        H430   1.111       .  S
C426        H431   1.110       .  S
C426        H432   1.111       .  S
C433        H440   1.084       .  S
C433        C434   1.405       .  A
C433        C438   1.402       .  A
C434       C1619   1.418       .  A
C435       C2802   1.409   1_455  A
C435        C436   1.400       .  A
C435        C442   1.507       .  S
C436        H441   1.084       .  S
C436        C437   1.403       .  A
C437       C2806   1.406   1_455  A
C438       C1621   1.411       .  A
C438        C439   1.507       .  S
C439        H443   1.111       .  S
C439        H444   1.110       .  S
C439        H445   1.110       .  S
C442        H446   1.110       .  S
C442        H447   1.109       .  S
C442        H448   1.111       .  S
C449        H456   1.084       .  S
C449       C1634   1.403       .  A
C449        C454   1.410       .  A
C450       C2817   1.404   1_455  A
C450        C451   1.412       .  A
C451        C452   1.389   1_455  A
C451        C458   1.504       .  S
C452        H457   1.084       .  S
C452       C2821   1.405       .  A
C453       C1636   1.405       .  A
C453        C454   1.422       .  A
C454        C455   1.506       .  S
C455        H459   1.111       .  S
C455        H460   1.110       .  S
C455        H461   1.104       .  S
C458        H462   1.096       .  S
C458        H463   1.109       .  S
C458        H464   1.111       .  S
C465        H472   1.085       .  S
C465        C466   1.401       .  A
C465        C470   1.394       .  A
C466        C467   1.420       .  A
C467        C468   1.406       .  A
C467        C474   1.504       .  S
C468        H473   1.084       .  S
C468        C469   1.400       .  A
C469        C470   1.417       .  A
C470        C471   1.504       .  S
C471        H475   1.109       .  S
C471        H476   1.098       .  S
C471        H477   1.111       .  S
C474        H478   1.110       .  S
C474        H479   1.110       .  S
C474        H480   1.111       .  S
C481        H488   1.084       .  S
C481        C482   1.403       .  A
C481        C486   1.408       .  A
C482        C483   1.413       .  A
C483        C484   1.391       .  A
C483        C490   1.506       .  S
C484        H489   1.084       .  S
C484        C485   1.407       .  A
C485        C486   1.420       .  A
C486        C487   1.506       .  S
C487        H491   1.111       .  S
C487        H492   1.110       .  S
C487        H493   1.104       .  S
C490        H494   1.098       .  S
C490        H495   1.109       .  S
C490        H496   1.111       .  S
C497        H504   1.084       .  S
C497       C2866   1.405   1_455  A
C497        C502   1.414       .  A
C498       C1681   1.405       .  A
C498        C499   1.416       .  A
C499        C500   1.395       .  A
C499        C506   1.507       .  S
C500        H505   1.085       .  S
C500       C1685   1.404       .  A
C501       C2868   1.406       .  A
C501        C502   1.421       .  A
C502        C503   1.506       .  S
C503        H507   1.111       .  S
C503        H508   1.110       .  S
C503        H509   1.110       .  S
C506        H510   1.097       .  S
C506        H511   1.111       .  S
C506        H512   1.110       .  S
C513        H520   1.084       .  S
C513        C514   1.403       .  A
C513        C518   1.403       .  A
C514       C1699   1.412       .  A
C515       C2882   1.412       .  A
C515        C516   1.401   1_655  A
C515        C522   1.508   1_655  S
C516        H521   1.082       .  S
C516        C517   1.402       .  A
C517       C2886   1.411   1_455  A
C518       C1701   1.411       .  A
C518        C519   1.507       .  S
C519        H523   1.111       .  S
C519        H524   1.109       .  S
C519        H525   1.110       .  S
C522        H526   1.109       .  S
C522        H527   1.110       .  S
C522        H528   1.111       .  S
C529        H536   1.084       .  S
C529        C530   1.408       .  A
C529        C534   1.406       .  A
C530        C531   1.413       .  A
C531        C532   1.401       .  A
C531        C538   1.508       .  S
C532        H537   1.085       .  S
C532        C533   1.401       .  A
C533        C534   1.407       .  A
C534        C535   1.505       .  S
C535        H539   1.111       .  S
C535        H540   1.110       .  S
C535        H541   1.110       .  S
C538        H542   1.110       .  S
C538        H543   1.109       .  S
C538        H544   1.111       .  S
C545        H552   1.084       .  S
C545        C546   1.406       .  A
C545        C550   1.407       .  A
C546        C547   1.414       .  A
C547        C548   1.405       .  A
C547        C554   1.508       .  S
C548        H553   1.082       .  S
C548        C549   1.403       .  A
C549        C550   1.411       .  A
C550        C551   1.507       .  S
C551        H555   1.111       .  S
C551        H556   1.109       .  S
C551        H557   1.111       .  S
C554        H558   1.109       .  S
C554        H559   1.110       .  S
C554        H560   1.110       .  S
C561        H568   1.084       .  S
C561       C1746   1.406       .  A
C561       C1158   1.406   1_545  A
C562       C2929   1.407       .  A
C563       C1156   1.402   1_445  A
C563        C570   1.509       .  S
C564        H569   1.084       .  S
C564       C1155   1.405       .  A
C564       C2933   1.408       .  A
C565       C1748   1.408       .  A
C566       C1153   1.407       .  A
C566        C567   1.506       .  S
C567       H1163   1.111       .  S
C567        H573   1.109       .  S
C570        H574   1.109       .  S
C570       H1168   1.111       .  S
H571       C1159   1.111       .  S
H576       C1162   1.111       .  S
C577        H584   1.084       .  S
C577        C582   1.407       .  A
C578        C579   1.414       .  A
C579        C580   1.402       .  A
C579        C586   1.508       .  S
C580        H585   1.083       .  S
C581        C582   1.418       .  A
C582        C583   1.508       .  S
C583        H587   1.111       .  S
C583        H589   1.110       .  S
C586        H590   1.109       .  S
C586        H592   1.111       .  S
O593       Ni599   1.922       .  S
O593        C614   1.271       .  A
O594       Ni617   1.895       .  S
O594        C899   1.266       .  A
O595       Ni599   1.922       .  S
O595       Ni617   1.910       .  S
O595       Ni907   1.919       .  S
O595        H618   0.966       .  S
C596        O613   1.265       .  A
C596        O605   1.274       .  A
C596        C813   1.479       .  S
O597       Ni616   1.933       .  S
O597        C603   1.272       .  A
O598       Ni616   1.900       .  S
O598        C600   1.268       .  A
Ni599       O602   1.929       .  S
Ni599       O604   1.893       .  S
C600        O610   1.277       .  A
C600        C845   1.479       .  S
O601       Ni617   1.899       .  S
O601        C607   1.265       .  A
O602        C607   1.270       .  A
C603        O890   1.266   1_554  A
C603        C874   1.484       .  S
O604        C606   1.271       .  A
O605       Ni616   1.947       .  S
C606        O612   1.278       .  A
C606        C797   1.490       .  S
C607        C826   1.481       .  S
H608        O609   0.966       .  S
O609       Ni913   1.915   1_554  S
O609       Ni611   1.906       .  S
O609       Ni616   1.926       .  S
O610       Ni611   1.951       .  S
Ni611       O615   1.895       .  S
Ni611       O613   1.900       .  S
Ni611       O891   1.916   1_554  S
O612       Ni617   1.954       .  S
C614        O911   1.265       .  A
C614        C858   1.491       .  S
O615        C910   1.263   1_554  A
Ni617       O905   1.910       .  S
O619       Ni625   1.935       .  S
O619        C640   1.271       .  A
O620       Ni643   1.904       .  S
O620        C925   1.264       .  A
O621       Ni625   1.922       .  S
O621       Ni643   1.903       .  S
O621       Ni933   1.899       .  S
O621        H644   0.966       .  S
C622        O639   1.265       .  A
C622        O631   1.270       .  A
C622        C778   1.474       .  S
O623       Ni642   1.931       .  S
O623        C629   1.272       .  A
O624       Ni642   1.894       .  S
O624        C626   1.272       .  A
Ni625       O628   1.926       .  S
Ni625       O630   1.898       .  S
C626        O636   1.278       .  A
C626        C749   1.495       .  S
O627       Ni643   1.886       .  S
O627        C633   1.266       .  A
O628        C633   1.274       .  A
C629        O916   1.265   1_554  A
C629        C861   1.502   1_554  S
O630        C632   1.269       .  A
O631       Ni642   1.936       .  S
C632        O638   1.271       .  A
C632        C762   1.479       .  S
C633        C730   1.469       .  S
H634        O635   0.966       .  S
O635       Ni939   1.918   1_554  S
O635       Ni637   1.915       .  S
O635       Ni642   1.925       .  S
O636       Ni637   1.953       .  S
Ni637       O641   1.900       .  S
Ni637       O639   1.897       .  S
Ni637       O917   1.899   1_554  S
O638       Ni643   1.923       .  S
C640        O937   1.264       .  A
C640        C877   1.480       .  S
O641        C936   1.266   1_554  A
Ni643       O931   1.916       .  S
O645       Ni651   1.935       .  S
O645        C666   1.272       .  A
O646       Ni669   1.894       .  S
O646        C655   1.265       .  A
O647       Ni651   1.930       .  S
O647       Ni669   1.914       .  S
O647       Ni663   1.925       .  S
O647        H670   0.966       .  S
C648        O665   1.268       .  A
C648        O657   1.276       .  A
C648        C842   1.477       .  S
O649       Ni668   1.945       .  S
O649        C655   1.274       .  A
O650       Ni668   1.901       .  S
O650        C652   1.268       .  A
Ni651       O654   1.944       .  S
Ni651       O656   1.893       .  S
C652        O662   1.275       .  A
C652        C810   1.473       .  S
O653       Ni669   1.902       .  S
O653        C659   1.265       .  A
O654        C659   1.273       .  A
C655        C698   1.494       .  S
O656        C658   1.267       .  A
O657       Ni668   1.947       .  S
C658        O664   1.275       .  A
C658        C829   1.463       .  S
C659        C794   1.480       .  S
H660        O661   0.966       .  S
O661       Ni669   1.904       .  S
O661       Ni663   1.903       .  S
O661       Ni668   1.921       .  S
O662       Ni663   1.945       .  S
Ni663       O667   1.898       .  S
Ni663       O665   1.905       .  S
O664       Ni669   1.940       .  S
C666        O667   1.266       .  A
C666        C717   1.496       .  S
O671       Ni677   1.941       .  S
O671        C692   1.273       .  A
O672       Ni695   1.898       .  S
O672        C681   1.265       .  A
O673       Ni677   1.921       .  S
O673       Ni695   1.907       .  S
O673       Ni689   1.907       .  S
O673        H696   0.966       .  S
C674        O691   1.270       .  A
C674        O683   1.274       .  A
C674        C746   1.472       .  S
O675       Ni694   1.936       .  S
O675        C681   1.271       .  A
O676       Ni694   1.894       .  S
O676        C678   1.269       .  A
Ni677       O680   1.932       .  S
Ni677       O682   1.898       .  S
C678        O688   1.270       .  A
C678        C781   1.489       .  S
O679       Ni695   1.890       .  S
O679        C685   1.267       .  A
O680        C685   1.275       .  A
C681        C714   1.488       .  S
O682        C684   1.270       .  A
O683       Ni694   1.934       .  S
C684        O690   1.272       .  A
C684        C733   1.473       .  S
C685        C765   1.468       .  S
H686        O687   0.966       .  S
O687       Ni695   1.904       .  S
O687       Ni689   1.910       .  S
O687       Ni694   1.916       .  S
O688       Ni689   1.936       .  S
Ni689       O693   1.900       .  S
Ni689       O691   1.899       .  S
O690       Ni695   1.923       .  S
C692        O693   1.266       .  A
C692        C701   1.488       .  S
C697        H704   1.084       .  S
C697       C3066   1.406   1_455  A
C698       C1881   1.409       .  A
C698        C699   1.418       .  A
C700        H705   1.084       .  S
C700       C1885   1.404       .  A
C701       C3068   1.405       .  A
C701        C702   1.416   1_565  A
C703        H707   1.111       .  S
C706        H712   1.111       .  S
C713        H720   1.084       .  S
C713        C714   1.406       .  A
C713        C718   1.406       .  A
C714        C715   1.416       .  A
C715        C716   1.405       .  A
C715        C722   1.509       .  S
C716        H721   1.084       .  S
C716        C717   1.409       .  A
C717        C718   1.420       .  A
C718        C719   1.509       .  S
C719        H723   1.111       .  S
C719        H724   1.110       .  S
C719        H725   1.110       .  S
C722        H726   1.109       .  S
C722        H727   1.110       .  S
C722        H728   1.111       .  S
C729        H736   1.084       .  S
C729        C730   1.406       .  A
C729        C734   1.401       .  A
C730       C1915   1.414       .  A
C731       C3098   1.417   1_455  A
C731        C732   1.397       .  A
C731        C738   1.511       .  S
C732        H737   1.085       .  S
C732        C733   1.402       .  A
C733       C3102   1.411       .  A
C734       C1917   1.408       .  A
C734        C735   1.506       .  S
C735        H739   1.111       .  S
C735        H740   1.109       .  S
C735        H741   1.110       .  S
C738        H742   1.110       .  S
C738        H743   1.109       .  S
C738        H744   1.111       .  S
C745        H752   1.084       .  S
C745       C1930   1.404       .  A
C745        C750   1.410       .  A
C746       C3113   1.403   1_455  A
C746        C747   1.412       .  A
C747        C748   1.389   1_455  A
C747        C754   1.505       .  S
C748        H753   1.084       .  S
C748       C3117   1.405       .  A
C749       C1932   1.406       .  A
C749        C750   1.422       .  A
C750        C751   1.506       .  S
C751        H755   1.111       .  S
C751        H756   1.110       .  S
C751        H757   1.105       .  S
C754        H758   1.097       .  S
C754        H759   1.109       .  S
C754        H760   1.111       .  S
C761        H768   1.085       .  S
C761        C762   1.401       .  A
C761        C766   1.394       .  A
C762        C763   1.419       .  A
C763        C764   1.405       .  A
C763        C770   1.505       .  S
C764        H769   1.084       .  S
C764        C765   1.399       .  A
C765        C766   1.417       .  A
C766        C767   1.510       .  S
C767        H771   1.110       .  S
C767        H772   1.102       .  S
C767        H773   1.111       .  S
C770        H774   1.111       .  S
C770        H775   1.109       .  S
C770        H776   1.111       .  S
C777        H784   1.084       .  S
C777        C778   1.402       .  A
C777        C782   1.409       .  A
C778        C779   1.413       .  A
C779        C780   1.389       .  A
C779        C786   1.503       .  S
C780        H785   1.084       .  S
C780        C781   1.403       .  A
C781        C782   1.423       .  A
C782        C783   1.507       .  S
C783        H787   1.111       .  S
C783        H788   1.110       .  S
C783        H789   1.103       .  S
C786        H790   1.095       .  S
C786        H791   1.108       .  S
C786        H792   1.111       .  S
C793        H800   1.084       .  S
C793       C3162   1.404   1_455  A
C793        C798   1.414       .  A
C794       C1977   1.404       .  A
C794        C795   1.416       .  A
C795        C796   1.395       .  A
C795        C802   1.506       .  S
C796        H801   1.085       .  S
C796       C1981   1.403       .  A
C797       C3164   1.402       .  A
C797        C798   1.421       .  A
C798        C799   1.506       .  S
C799        H803   1.111       .  S
C799        H804   1.111       .  S
C799        H805   1.110       .  S
C802        H806   1.097       .  S
C802        H807   1.110       .  S
C802        H808   1.110       .  S
C809        H816   1.083       .  S
C809        C810   1.404       .  A
C809        C814   1.404       .  A
C810       C1995   1.412       .  A
C811       C3178   1.411   1_455  A
C811        C812   1.406       .  A
C811        C818   1.507       .  S
C812        H817   1.084       .  S
C812        C813   1.406       .  A
C813       C3182   1.413   1_455  A
C814       C1997   1.410       .  A
C814        C815   1.506       .  S
C815        H819   1.111       .  S
C815        H820   1.110       .  S
C815        H821   1.110       .  S
C818        H822   1.110       .  S
C818        H823   1.110       .  S
C818        H824   1.111       .  S
C825        H832   1.084       .  S
C825        C826   1.410       .  A
C825        C830   1.403       .  A
C826        C827   1.417       .  A
C827        C828   1.401       .  A
C827        C834   1.509       .  S
C828        H833   1.084       .  S
C828        C829   1.400       .  A
C829        C830   1.404       .  A
C830        C831   1.506       .  S
C831        H835   1.111       .  S
C831        H836   1.110       .  S
C831        H837   1.110       .  S
C834        H838   1.110       .  S
C834        H839   1.108       .  S
C834        H840   1.111       .  S
C841        H848   1.083       .  S
C841        C842   1.403       .  A
C841        C846   1.404       .  A
C842        C843   1.412       .  A
C843        C844   1.406       .  A
C843        C850   1.506       .  S
C844        H849   1.084       .  S
C844        C845   1.405       .  A
C845        C846   1.414       .  A
C846        C847   1.508       .  S
C847        H851   1.111       .  S
C847        H852   1.109       .  S
C847        H853   1.110       .  S
C850        H854   1.110       .  S
C850        H855   1.110       .  S
C850        H856   1.111       .  S
C857        H864   1.083       .  S
C857       C2042   1.406       .  A
C858       C3225   1.406       .  A
C858       C1155   1.419   1_455  A
C859       C1154   1.417   1_654  A
C859        C866   1.509       .  S
C860        H865   1.083       .  S
C860       C3229   1.409   1_545  A
C861       C2044   1.410   1_566  A
C861       C1158   1.423       .  A
C862       C1157   1.421       .  A
C862        C863   1.509       .  S
C863       H1164   1.107       .  S
C863        H869   1.107       .  S
C866        H870   1.109       .  S
C866       H1167   1.110   1_655  S
H868       C1159   1.110       .  S
H871       C1162   1.110   1_455  S
C873        H880   1.083       .  S
C873       C1170   1.407       .  A
C873        C878   1.403       .  A
C874       C1169   1.407   1_554  A
C874        C875   1.416       .  A
C875        C876   1.404       .  A
C875        C882   1.508       .  S
C876        H881   1.084       .  S
C876       C1173   1.404   1_554  A
C877       C1172   1.403       .  A
C877        C878   1.413       .  A
C878        C879   1.508       .  S
C879        H883   1.111       .  S
C879       H1180   1.110       .  S
C879        H885   1.109       .  S
C882        H886   1.109       .  S
C882       H1183   1.110       .  S
C882        H888   1.111       .  S
H884       C1175   1.110       .  S
H887       C1178   1.110       .  S
O889       Ni895   1.926       .  S
O889        C910   1.271       .  A
O890       Ni913   1.896       .  S
O891       Ni895   1.922       .  S
O891       Ni913   1.908       .  S
O891        H914   0.966       .  S
C892        O909   1.265       .  A
C892        O901   1.274       .  A
C892       C1109   1.474       .  S
O893       Ni912   1.934       .  S
O893        C899   1.272       .  A
O894       Ni912   1.904       .  S
O894        C896   1.269       .  A
Ni895       O898   1.931       .  S
Ni895       O900   1.893       .  S
C896        O906   1.277       .  A
C896       C1141   1.478       .  S
O897       Ni913   1.899       .  S
O897        C903   1.265       .  A
O898        C903   1.270       .  A
C899       C1170   1.484       .  S
O900        C902   1.271       .  A
O901       Ni912   1.942       .  S
C902        O908   1.280       .  A
C902       C1093   1.498       .  S
C903       C1122   1.472       .  S
H904        O905   0.966       .  S
O905       Ni907   1.904       .  S
O905       Ni912   1.922       .  S
O906       Ni907   1.952       .  S
Ni907       O911   1.901       .  S
Ni907       O909   1.898       .  S
O908       Ni913   1.962       .  S
C910       C1154   1.484       .  S
O915       Ni921   1.931       .  S
O915        C936   1.270       .  A
O916       Ni939   1.904       .  S
O917       Ni921   1.922       .  S
O917       Ni939   1.904       .  S
O917        H940   0.966       .  S
C918        O935   1.267       .  A
C918        O927   1.271       .  A
C918       C1074   1.474       .  S
O919       Ni938   1.928       .  S
O919        C925   1.272       .  A
O920       Ni938   1.894       .  S
O920        C922   1.270       .  A
Ni921       O924   1.929       .  S
Ni921       O926   1.893       .  S
C922        O932   1.274       .  A
C922       C1045   1.488       .  S
O923       Ni939   1.885       .  S
O923        C929   1.264       .  A
O924        C929   1.272       .  A
C925       C1157   1.501       .  S
O926        C928   1.269       .  A
O927       Ni938   1.935       .  S
C928        O934   1.275       .  A
C928       C1058   1.490       .  S
C929       C1026   1.467       .  S
H930        O931   0.966       .  S
O931       Ni933   1.912       .  S
O931       Ni938   1.921       .  S
O932       Ni933   1.941       .  S
Ni933       O937   1.897       .  S
Ni933       O935   1.898       .  S
O934       Ni939   1.943       .  S
C936       C1173   1.482       .  S
O941       Ni947   1.928       .  S
O941        C962   1.270       .  A
O942       Ni965   1.894       .  S
O942        C951   1.265       .  A
O943       Ni947   1.928       .  S
O943       Ni965   1.909       .  S
O943       Ni959   1.920       .  S
O943        H966   0.966       .  S
C944        O961   1.267       .  A
C944        O953   1.275       .  A
C944       C1138   1.480       .  S
O945       Ni964   1.937       .  S
O945        C951   1.272       .  A
O946       Ni964   1.899       .  S
O946        C948   1.268       .  A
Ni947       O950   1.942       .  S
Ni947       O952   1.895       .  S
C948        O958   1.276       .  A
C948       C1106   1.470       .  S
O949       Ni965   1.898       .  S
O949        C955   1.265       .  A
O950        C955   1.272       .  A
C951        C994   1.484       .  S
O952        C954   1.267       .  A
O953       Ni964   1.946       .  S
C954        O960   1.276       .  A
C954       C1125   1.465       .  S
C955       C1090   1.475       .  S
H956        O957   0.966       .  S
O957       Ni965   1.908       .  S
O957       Ni959   1.904       .  S
O957       Ni964   1.923       .  S
O958       Ni959   1.947       .  S
Ni959       O963   1.897       .  S
Ni959       O961   1.902       .  S
O960       Ni965   1.943       .  S
C962        O963   1.266       .  A
C962       C1013   1.489       .  S
O967       Ni973   1.938       .  S
O967        C988   1.271       .  A
O968       Ni991   1.891       .  S
O968        C977   1.264       .  A
O969       Ni973   1.926       .  S
O969       Ni991   1.904       .  S
O969       Ni985   1.909       .  S
O969        H992   0.966       .  S
C970        O987   1.269       .  A
C970        O979   1.273       .  A
C970       C1042   1.476       .  S
O971       Ni990   1.934       .  S
O971        C977   1.271       .  A
O972       Ni990   1.893       .  S
O972        C974   1.270       .  A
Ni973       O976   1.934       .  S
Ni973       O978   1.896       .  S
C974        O984   1.272       .  A
C974       C1077   1.489       .  S
O975       Ni991   1.901       .  S
O975        C981   1.269       .  A
O976        C981   1.274       .  A
C977       C1010   1.483       .  S
O978        C980   1.268       .  A
O979       Ni990   1.938       .  S
C980        O986   1.269       .  A
C980       C1029   1.462       .  S
C981       C1061   1.475       .  S
H982        O983   0.966       .  S
O983       Ni991   1.911       .  S
O983       Ni985   1.906       .  S
O983       Ni990   1.918       .  S
O984       Ni985   1.939       .  S
Ni985       O989   1.891       .  S
Ni985       O987   1.901       .  S
O986       Ni991   1.917       .  S
C988        O989   1.263       .  A
C988        C997   1.479       .  S
C993       H1000   1.085   1_655  S
C993       C3362   1.405       .  A
C994       C2177   1.407       .  A
C994        C995   1.415       .  A
C996       H1001   1.083       .  S
C996       C2181   1.405       .  A
C997       C3364   1.404   1_455  A
C997        C998   1.412   1_565  A
C999       H1003   1.111       .  S
C1002      H1008   1.111       .  S
C1009      H1016   1.084       .  S
C1009      C1010   1.406       .  A
C1009      C1014   1.403       .  A
C1010      C1011   1.414       .  A
C1011      C1012   1.403       .  A
C1011      C1018   1.509       .  S
C1012      H1017   1.084       .  S
C1012      C1013   1.408       .  A
C1013      C1014   1.419       .  A
C1014      C1015   1.509       .  S
C1015      H1019   1.111       .  S
C1015      H1020   1.110       .  S
C1015      H1021   1.109       .  S
C1018      H1022   1.109       .  S
C1018      H1023   1.110       .  S
C1018      H1024   1.111       .  S
C1025      H1032   1.084       .  S
C1025      C1026   1.406       .  A
C1025      C1030   1.400       .  A
C1026      C2211   1.413       .  A
C1027      C3394   1.413   1_455  A
C1027      C1028   1.395       .  A
C1027      C1034   1.510       .  S
C1028      H1033   1.085       .  S
C1028      C1029   1.400       .  A
C1029      C3398   1.409       .  A
C1030      C2213   1.406       .  A
C1030      C1031   1.505       .  S
C1031      H1035   1.111       .  S
C1031      H1036   1.110       .  S
C1031      H1037   1.110       .  S
C1034      H1038   1.110       .  S
C1034      H1039   1.109       .  S
C1034      H1040   1.111       .  S
C1041      H1048   1.084       .  S
C1041      C2226   1.401       .  A
C1041      C1046   1.405       .  A
C1042      C3409   1.404   1_455  A
C1042      C1043   1.413       .  A
C1043      C1044   1.389   1_455  A
C1043      C1050   1.504       .  S
C1044      H1049   1.084       .  S
C1044      C3413   1.405       .  A
C1045      C2228   1.407       .  A
C1045      C1046   1.421       .  A
C1046      C1047   1.507       .  S
C1047      H1051   1.111       .  S
C1047      H1052   1.110       .  S
C1047      H1053   1.103       .  S
C1050      H1054   1.097       .  S
C1050      H1055   1.108       .  S
C1050      H1056   1.111       .  S
C1057      H1064   1.085       .  S
C1057      C1058   1.404       .  A
C1057      C1062   1.394       .  A
C1058      C1059   1.422       .  A
C1059      C1060   1.411       .  A
C1059      C1066   1.507       .  S
C1060      H1065   1.084       .  S
C1060      C1061   1.402       .  A
C1061      C1062   1.416       .  A
C1062      C1063   1.510       .  S
C1063      H1067   1.111       .  S
C1063      H1068   1.101       .  S
C1063      H1069   1.111       .  S
C1066      H1070   1.111       .  S
C1066      H1071   1.110       .  S
C1066      H1072   1.111       .  S
C1073      H1080   1.084       .  S
C1073      C1074   1.402       .  A
C1073      C1078   1.408       .  A
C1074      C1075   1.413       .  A
C1075      C1076   1.390       .  A
C1075      C1082   1.504       .  S
C1076      H1081   1.084       .  S
C1076      C1077   1.404       .  A
C1077      C1078   1.423       .  A
C1078      C1079   1.507       .  S
C1079      H1083   1.111       .  S
C1079      H1084   1.110       .  S
C1079      H1085   1.103       .  S
C1082      H1086   1.097       .  S
C1082      H1087   1.108       .  S
C1082      H1088   1.111       .  S
C1089      H1096   1.084       .  S
C1089      C3458   1.405   1_455  A
C1089      C1094   1.417       .  A
C1090      C2273   1.403       .  A
C1090      C1091   1.415       .  A
C1091      C1092   1.392       .  A
C1091      C1098   1.506       .  S
C1092      H1097   1.085       .  S
C1092      C2277   1.403       .  A
C1093      C3460   1.403       .  A
C1093      C1094   1.423       .  A
C1094      C1095   1.506       .  S
C1095      H1099   1.111       .  S
C1095      H1100   1.110       .  S
C1095      H1101   1.110       .  S
C1098      H1102   1.097       .  S
C1098      H1103   1.111       .  S
C1098      H1104   1.110       .  S
C1105      H1112   1.083       .  S
C1105      C1106   1.402       .  A
C1105      C1110   1.402       .  A
C1106      C2291   1.412       .  A
C1107      C3474   1.409   1_455  A
C1107      C1108   1.402       .  A
C1107      C1114   1.506       .  S
C1108      H1113   1.082       .  S
C1108      C1109   1.404       .  A
C1109      C3478   1.412   1_455  A
C1110      C2293   1.412       .  A
C1110      C1111   1.507       .  S
C1111      H1115   1.111       .  S
C1111      H1116   1.109       .  S
C1111      H1117   1.110       .  S
C1114      H1118   1.110       .  S
C1114      H1119   1.110       .  S
C1114      H1120   1.110       .  S
C1121      H1128   1.084       .  S
C1121      C1122   1.406       .  A
C1121      C1126   1.402       .  A
C1122      C1123   1.412       .  A
C1123      C1124   1.401       .  A
C1123      C1130   1.507       .  S
C1124      H1129   1.083       .  S
C1124      C1125   1.401       .  A
C1125      C1126   1.408       .  A
C1126      C1127   1.507       .  S
C1127      H1131   1.111       .  S
C1127      H1132   1.110       .  S
C1127      H1133   1.110       .  S
C1130      H1134   1.110       .  S
C1130      H1135   1.109       .  S
C1130      H1136   1.111       .  S
C1137      H1144   1.083       .  S
C1137      C1138   1.404       .  A
C1137      C1142   1.404       .  A
C1138      C1139   1.413       .  A
C1139      C1140   1.406       .  A
C1139      C1146   1.507       .  S
C1140      H1145   1.082       .  S
C1140      C1141   1.404       .  A
C1141      C1142   1.411       .  A
C1142      C1143   1.507       .  S
C1143      H1147   1.111       .  S
C1143      H1148   1.109       .  S
C1143      H1149   1.110       .  S
C1146      H1150   1.109       .  S
C1146      H1151   1.110       .  S
C1146      H1152   1.110       .  S
C1153      H1160   1.084       .  S
C1153      C2338   1.408       .  A
C1154      C3521   1.403       .  A
C1155      C1162   1.510       .  S
C1156      H1161   1.084       .  S
C1156      C3525   1.408       .  A
C1157      C2340   1.410   1_565  A
C1158      C1159   1.509       .  S
C1159      H1165   1.107       .  S
C1162      H1166   1.110       .  S
C1169      H1176   1.084       .  S
C1169      C1174   1.404       .  A
C1170      C1171   1.417       .  A
C1171      C1172   1.403       .  A
C1171      C1178   1.508       .  S
C1172      H1177   1.084       .  S
C1173      C1174   1.415       .  A
C1174      C1175   1.508       .  S
C1175      H1179   1.111       .  S
C1175      H1181   1.109       .  S
C1178      H1182   1.109       .  S
C1178      H1184   1.111       .  S
O1185     Ni1191   1.933       .  S
O1185      C1206   1.272       .  A
O1186     Ni1209   1.892       .  S
O1186      C1491   1.265       .  A
O1187     Ni1191   1.922       .  S
O1187     Ni1209   1.912       .  S
O1187     Ni1499   1.914       .  S
O1187      H1210   0.966       .  S
C1188      O1205   1.268       .  A
C1188      O1197   1.278       .  A
C1188      C1405   1.474       .  S
O1189     Ni1208   1.940       .  S
O1189      C1195   1.274       .  A
O1190     Ni1208   1.903       .  S
O1190      C1192   1.267       .  A
Ni1191     O1194   1.928       .  S
Ni1191     O1196   1.892       .  S
C1192      O1202   1.275       .  A
C1192      C1437   1.474       .  S
O1193     Ni1209   1.900       .  S
O1193      C1199   1.267       .  A
O1194      C1199   1.273       .  A
C1195      O1482   1.268   1_554  A
C1195      C1466   1.488       .  S
O1196      C1198   1.269       .  A
O1197     Ni1208   1.949       .  S
C1198      O1204   1.274       .  A
C1198      C1389   1.492       .  S
C1199      C1418   1.478       .  S
H1200      O1201   0.966       .  S
O1201     Ni1505   1.906   1_554  S
O1201     Ni1203   1.906       .  S
O1201     Ni1208   1.917       .  S
O1202     Ni1203   1.946       .  S
Ni1203     O1207   1.909       .  S
Ni1203     O1205   1.894       .  S
Ni1203     O1483   1.911   1_554  S
O1204     Ni1209   1.938       .  S
C1206      O1503   1.265       .  A
C1206      C1450   1.499       .  S
O1207      C1502   1.267   1_554  A
Ni1209     O1497   1.904       .  S
O1211     Ni1217   1.932       .  S
O1211      C1232   1.270       .  A
O1212     Ni1235   1.900       .  S
O1212      C1517   1.263       .  A
O1213     Ni1217   1.918       .  S
O1213     Ni1235   1.900       .  S
O1213     Ni1525   1.893       .  S
O1213      H1236   0.966       .  S
C1214      O1231   1.265       .  A
C1214      O1223   1.269       .  A
C1214      C1370   1.472       .  S
O1215     Ni1234   1.926       .  S
O1215      C1221   1.271       .  A
O1216     Ni1234   1.892       .  S
O1216      C1218   1.271       .  A
Ni1217     O1220   1.924       .  S
Ni1217     O1222   1.890       .  S
C1218      O1228   1.277       .  A
C1218      C1341   1.487       .  S
O1219     Ni1235   1.883       .  S
O1219      C1225   1.265       .  A
O1220      C1225   1.273       .  A
C1221      O1508   1.262   1_554  A
C1221      C1453   1.496       .  S
O1222      C1224   1.269       .  A
O1223     Ni1234   1.935       .  S
C1224      O1230   1.271       .  A
C1224      C1354   1.483       .  S
C1225      C1322   1.464       .  S
H1226      O1227   0.966       .  S
O1227     Ni1531   1.920   1_554  S
O1227     Ni1229   1.915       .  S
O1227     Ni1234   1.924       .  S
O1228     Ni1229   1.950       .  S
Ni1229     O1233   1.902       .  S
Ni1229     O1231   1.899       .  S
Ni1229     O1509   1.897   1_554  S
O1230     Ni1235   1.933       .  S
C1232      O1529   1.266       .  A
C1232      C1469   1.484       .  S
O1233      C1528   1.267   1_554  A
Ni1235     O1523   1.921       .  S
O1237     Ni1243   1.943       .  S
O1237      C1258   1.273       .  A
O1238     Ni1261   1.892       .  S
O1238      C1247   1.265       .  A
O1239     Ni1243   1.920       .  S
O1239     Ni1261   1.902       .  S
O1239     Ni1255   1.911       .  S
O1239      H1262   0.966       .  S
C1240      O1257   1.271       .  A
C1240      O1249   1.278       .  A
C1240      C1434   1.474       .  S
O1241     Ni1260   1.940       .  S
O1241      C1247   1.274       .  A
O1242     Ni1260   1.904       .  S
O1242      C1244   1.267       .  A
Ni1243     O1246   1.936       .  S
Ni1243     O1248   1.902       .  S
C1244      O1254   1.273       .  A
C1244      C1402   1.473       .  S
O1245     Ni1261   1.903       .  S
O1245      C1251   1.270       .  A
O1246      C1251   1.277       .  A
C1247      C1290   1.476       .  S
O1248      C1250   1.269       .  A
O1249     Ni1260   1.944       .  S
C1250      O1256   1.274       .  A
C1250      C1421   1.473       .  S
C1251      C1386   1.479       .  S
H1252      O1253   0.966       .  S
O1253     Ni1261   1.904       .  S
O1253     Ni1255   1.899       .  S
O1253     Ni1260   1.913       .  S
O1254     Ni1255   1.938       .  S
Ni1255     O1259   1.894       .  S
Ni1255     O1257   1.901       .  S
O1256     Ni1261   1.931       .  S
C1258      O1259   1.265       .  A
C1258      C1309   1.490       .  S
O1263     Ni1269   1.944       .  S
O1263      C1284   1.273       .  A
O1264     Ni1287   1.898       .  S
O1264      C1273   1.266       .  A
O1265     Ni1269   1.921       .  S
O1265     Ni1287   1.903       .  S
O1265     Ni1281   1.904       .  S
O1265      H1288   0.966       .  S
C1266      O1283   1.269       .  A
C1266      O1275   1.273       .  A
C1266      C1338   1.469       .  S
O1267     Ni1286   1.934       .  S
O1267      C1273   1.271       .  A
O1268     Ni1286   1.893       .  S
O1268      C1270   1.269       .  A
Ni1269     O1272   1.934       .  S
Ni1269     O1274   1.899       .  S
C1270      O1280   1.271       .  A
C1270      C1373   1.486       .  S
O1271     Ni1287   1.896       .  S
O1271      C1277   1.269       .  A
O1272      C1277   1.276       .  A
C1273      C1306   1.493       .  S
O1274      C1276   1.269       .  A
O1275     Ni1286   1.936       .  S
C1276      O1282   1.269       .  A
C1276      C1325   1.464       .  S
C1277      C1357   1.471       .  S
H1278      O1279   0.966       .  S
O1279     Ni1287   1.906       .  S
O1279     Ni1281   1.909       .  S
O1279     Ni1286   1.912       .  S
O1280     Ni1281   1.939       .  S
Ni1281     O1285   1.899       .  S
Ni1281     O1283   1.897       .  S
O1282     Ni1287   1.915       .  S
C1284      O1285   1.265       .  A
C1284      C1293   1.491       .  S
C1289      H1296   1.084       .  S
C1289      C1886   1.406       .  A
C1290      C2473   1.404       .  A
C1290      C1291   1.412   1_545  A
C1291      C1884   1.403       .  A
C1291      C1890   1.507       .  S
C1292      H1297   1.083       .  S
C1292      C1883   1.404       .  A
C1292      C2477   1.404       .  A
C1293      C1294   1.415       .  A
C1294      C1881   1.405       .  A
C1294      C1887   1.508       .  S
C1295      C1886   1.507       .  S
C1295      H1299   1.111       .  S
C1295      H1892   1.111       .  S
C1295      H1893   1.109       .  S
C1298      C1883   1.508       .  S
C1298      H1894   1.109       .  S
C1298      H1895   1.110       .  S
C1298      H1304   1.111       .  S
H1300      C1887   1.110       .  S
H1301      C1887   1.110       .  S
H1302      C1890   1.109       .  S
H1303      C1890   1.110       .  S
C1305      H1312   1.083       .  S
C1305      C1306   1.408       .  A
C1305      C1310   1.405       .  A
C1306      C1307   1.419       .  A
C1307      C1308   1.404       .  A
C1307      C1314   1.510       .  S
C1308      H1313   1.084       .  S
C1308      C1309   1.407       .  A
C1309      C1310   1.417       .  A
C1310      C1311   1.509       .  S
C1311      H1315   1.111       .  S
C1311      H1316   1.110       .  S
C1311      H1317   1.110       .  S
C1314      H1318   1.109       .  S
C1314      H1319   1.110       .  S
C1314      H1320   1.111       .  S
C1321      H1328   1.084       .  S
C1321      C1322   1.406       .  A
C1321      C1326   1.399       .  A
C1322      C2507   1.412       .  A
C1323      C1324   1.397       .  A
C1323      C1330   1.510       .  S
C1324      H1329   1.085       .  S
C1324      C1325   1.401       .  A
C1326      C2509   1.406       .  A
C1326      C1327   1.506       .  S
C1327      H1331   1.111       .  S
C1327      H1332   1.110       .  S
C1327      H1333   1.111       .  S
C1330      H1334   1.110       .  S
C1330      H1335   1.109       .  S
C1330      H1336   1.111       .  S
C1337      H1344   1.084       .  S
C1337      C2522   1.403       .  A
C1337      C1342   1.408       .  A
C1338      C1339   1.412       .  A
C1339      C1340   1.389       .  A
C1339      C1346   1.505       .  S
C1340      H1345   1.084       .  S
C1341      C2524   1.405       .  A
C1341      C1342   1.421       .  A
C1342      C1343   1.507       .  S
C1343      H1347   1.111       .  S
C1343      H1348   1.110       .  S
C1343      H1349   1.105       .  S
C1346      H1350   1.097       .  S
C1346      H1351   1.109       .  S
C1346      H1352   1.111       .  S
C1353      H1360   1.085       .  S
C1353      C1354   1.400       .  A
C1353      C1358   1.389       .  A
C1354      C1355   1.421       .  A
C1355      C1356   1.410       .  A
C1355      C1362   1.506       .  S
C1356      H1361   1.084       .  S
C1356      C1357   1.403       .  A
C1357      C1358   1.416       .  A
C1358      C1359   1.509       .  S
C1359      H1363   1.110       .  S
C1359      H1364   1.098       .  S
C1359      H1365   1.111       .  S
C1362      H1366   1.111       .  S
C1362      H1367   1.110       .  S
C1362      H1368   1.111       .  S
C1369      H1376   1.084       .  S
C1369      C1370   1.402       .  A
C1369      C1374   1.409       .  A
C1370      C1371   1.413       .  A
C1371      C1372   1.388       .  A
C1371      C1378   1.503       .  S
C1372      H1377   1.084       .  S
C1372      C1373   1.403       .  A
C1373      C1374   1.422       .  A
C1374      C1375   1.507       .  S
C1375      H1379   1.111       .  S
C1375      H1380   1.110       .  S
C1375      H1381   1.103       .  S
C1378      H1382   1.094       .  S
C1378      H1383   1.108       .  S
C1378      H1384   1.111       .  S
C1385      H1392   1.084       .  S
C1385      C1390   1.413       .  A
C1386      C2569   1.403       .  A
C1386      C1387   1.418       .  A
C1387      C1388   1.395       .  A
C1387      C1394   1.510       .  S
C1388      H1393   1.085       .  S
C1388      C2573   1.404       .  A
C1389      C1390   1.421       .  A
C1390      C1391   1.506       .  S
C1391      H1395   1.111       .  S
C1391      H1396   1.111       .  S
C1391      H1397   1.110       .  S
C1394      H1398   1.102       .  S
C1394      H1399   1.111       .  S
C1394      H1400   1.111       .  S
C1401      H1408   1.084       .  S
C1401      C1402   1.403       .  A
C1401      C1406   1.404       .  A
C1402      C2587   1.411       .  A
C1403      C1404   1.405       .  A
C1403      C1410   1.507       .  S
C1404      H1409   1.084       .  S
C1404      C1405   1.404       .  A
C1406      C2589   1.412       .  A
C1406      C1407   1.507       .  S
C1407      H1411   1.111       .  S
C1407      H1412   1.109       .  S
C1407      H1413   1.110       .  S
C1410      H1414   1.110       .  S
C1410      H1415   1.110       .  S
C1410      H1416   1.111       .  S
C1417      H1424   1.084       .  S
C1417      C1418   1.408       .  A
C1417      C1422   1.406       .  A
C1418      C1419   1.414       .  A
C1419      C1420   1.400       .  A
C1419      C1426   1.509       .  S
C1420      H1425   1.085       .  S
C1420      C1421   1.403       .  A
C1421      C1422   1.409       .  A
C1422      C1423   1.506       .  S
C1423      H1427   1.111       .  S
C1423      H1428   1.110       .  S
C1423      H1429   1.111       .  S
C1426      H1430   1.110       .  S
C1426      H1431   1.107       .  S
C1426      H1432   1.111       .  S
C1433      H1440   1.084       .  S
C1433      C1434   1.404       .  A
C1433      C1438   1.406       .  A
C1434      C1435   1.412       .  A
C1435      C1436   1.403       .  A
C1435      C1442   1.507       .  S
C1436      H1441   1.084       .  S
C1436      C1437   1.402       .  A
C1437      C1438   1.413       .  A
C1438      C1439   1.507       .  S
C1439      H1443   1.111       .  S
C1439      H1444   1.110       .  S
C1439      H1445   1.110       .  S
C1442      H1446   1.110       .  S
C1442      H1447   1.110       .  S
C1442      H1448   1.111       .  S
C1449      H1456   1.084       .  S
C1449      C2634   1.407   1_565  A
C1449      C2046   1.404       .  A
C1450      C1747   1.420       .  A
C1451      C1746   1.419   1_554  A
C1451      C2044   1.408       .  A
C1451      C1458   1.509       .  S
C1452      H1457   1.083       .  S
C1452      C2043   1.402       .  A
C1453      C2636   1.409       .  A
C1453      C1750   1.423   1_554  A
C1454      C2041   1.405       .  A
C1454      C1749   1.423       .  A
C1454      C1455   1.509       .  S
C1455      H2051   1.111       .  S
C1455      H1756   1.109       .  S
C1455      H1461   1.107       .  S
C1458      H1462   1.109       .  S
C1458      H1759   1.110       .  S
C1458      H2056   1.111       .  S
H1459      C2047   1.111       .  S
H1460      C1751   1.109       .  S
H1463      C1754   1.110       .  S
H1464      C2050   1.111       .  S
C1465      H1472   1.083       .  S
C1465      C1762   1.406       .  A
C1465      C1470   1.403       .  A
C1466      C1761   1.406   1_554  A
C1466      C1467   1.416       .  A
C1467      C1468   1.405       .  A
C1467      C1474   1.508       .  S
C1468      H1473   1.083       .  S
C1468      C1765   1.405   1_554  A
C1469      C1764   1.405       .  A
C1469      C1470   1.416       .  A
C1470      C1471   1.509       .  S
C1471      H1475   1.111       .  S
C1471      H1772   1.110       .  S
C1471      H1477   1.109       .  S
C1474      H1478   1.109       .  S
C1474      H1775   1.110       .  S
C1474      H1480   1.111       .  S
H1476      C1767   1.111       .  S
H1479      C1770   1.110       .  S
O1481     Ni1487   1.936       .  S
O1481      C1502   1.273       .  A
O1482     Ni1505   1.900       .  S
O1483     Ni1487   1.918       .  S
O1483     Ni1505   1.911       .  S
O1483      H1506   0.966       .  S
C1484      O1501   1.269       .  A
C1484      O1493   1.277       .  A
C1484      C1701   1.472       .  S
O1485     Ni1504   1.941       .  S
O1485      C1491   1.274       .  A
O1486     Ni1504   1.903       .  S
O1486      C1488   1.267       .  A
Ni1487     O1490   1.929       .  S
Ni1487     O1492   1.897       .  S
C1488      O1498   1.274       .  A
C1488      C1733   1.473       .  S
O1489     Ni1505   1.898       .  S
O1489      C1495   1.268       .  A
O1490      C1495   1.274       .  A
C1491      C1762   1.484       .  S
O1492      C1494   1.270       .  A
O1493     Ni1504   1.946       .  S
C1494      O1500   1.276       .  A
C1494      C1685   1.493       .  S
C1495      C1714   1.477       .  S
H1496      O1497   0.966       .  S
O1497     Ni1499   1.904       .  S
O1497     Ni1504   1.919       .  S
O1498     Ni1499   1.944       .  S
Ni1499     O1503   1.906       .  S
Ni1499     O1501   1.896       .  S
O1500     Ni1505   1.941       .  S
C1502      C1746   1.497       .  S
O1507     Ni1513   1.934       .  S
O1507      C1528   1.271       .  A
O1508     Ni1531   1.894       .  S
O1509     Ni1513   1.916       .  S
O1509     Ni1531   1.902       .  S
O1509      H1532   0.966       .  S
C1510      O1527   1.264       .  A
C1510      O1519   1.270       .  A
C1510      C1666   1.471       .  S
O1511     Ni1530   1.927       .  S
O1511      C1517   1.272       .  A
O1512     Ni1530   1.892       .  S
O1512      C1514   1.271       .  A
Ni1513     O1516   1.927       .  S
Ni1513     O1518   1.889       .  S
C1514      O1524   1.277       .  A
C1514      C1637   1.489       .  S
O1515     Ni1531   1.889       .  S
O1515      C1521   1.265       .  A
O1516      C1521   1.273       .  A
C1517      C1749   1.500       .  S
O1518      C1520   1.269       .  A
O1519     Ni1530   1.936       .  S
C1520      O1526   1.272       .  A
C1520      C1650   1.480       .  S
C1521      C1618   1.466       .  S
H1522      O1523   0.966       .  S
O1523     Ni1525   1.914       .  S
O1523     Ni1530   1.922       .  S
O1524     Ni1525   1.950       .  S
Ni1525     O1529   1.898       .  S
Ni1525     O1527   1.895       .  S
O1526     Ni1531   1.936       .  S
C1528      C1765   1.488       .  S
O1533     Ni1539   1.948       .  S
O1533      C1554   1.274       .  A
O1534     Ni1557   1.895       .  S
O1534      C1543   1.266       .  A
O1535     Ni1539   1.926       .  S
O1535     Ni1557   1.907       .  S
O1535     Ni1551   1.912       .  S
O1535      H1558   0.966       .  S
C1536      O1553   1.269       .  A
C1536      O1545   1.277       .  A
C1536      C1730   1.474       .  S
O1537     Ni1556   1.940       .  S
O1537      C1543   1.274       .  A
O1538     Ni1556   1.902       .  S
O1538      C1540   1.267       .  A
Ni1539     O1542   1.938       .  S
Ni1539     O1544   1.901       .  S
C1540      O1550   1.275       .  A
C1540      C1698   1.474       .  S
O1541     Ni1557   1.908       .  S
O1541      C1547   1.272       .  A
O1542      C1547   1.277       .  A
C1543      C1586   1.482       .  S
O1544      C1546   1.269       .  A
O1545     Ni1556   1.943       .  S
C1546      O1552   1.273       .  A
C1546      C1717   1.472       .  S
C1547      C1682   1.482       .  S
H1548      O1549   0.966       .  S
O1549     Ni1557   1.907       .  S
O1549     Ni1551   1.902       .  S
O1549     Ni1556   1.916       .  S
O1550     Ni1551   1.944       .  S
Ni1551     O1555   1.895       .  S
Ni1551     O1553   1.899       .  S
O1552     Ni1557   1.930       .  S
C1554      O1555   1.265       .  A
C1554      C1605   1.496       .  S
O1559     Ni1565   1.935       .  S
O1559      C1580   1.270       .  A
O1560     Ni1583   1.898       .  S
O1560      C1569   1.265       .  A
O1561     Ni1565   1.929       .  S
O1561     Ni1583   1.910       .  S
O1561     Ni1577   1.911       .  S
O1561      H1584   0.966       .  S
C1562      O1579   1.268       .  A
C1562      O1571   1.274       .  A
C1562      C1634   1.476       .  S
O1563     Ni1582   1.939       .  S
O1563      C1569   1.272       .  A
O1564     Ni1582   1.893       .  S
O1564      C1566   1.270       .  A
Ni1565     O1568   1.930       .  S
Ni1565     O1570   1.896       .  S
C1566      O1576   1.273       .  A
C1566      C1669   1.489       .  S
O1567     Ni1583   1.901       .  S
O1567      C1573   1.268       .  A
O1568      C1573   1.272       .  A
C1569      C1602   1.499       .  S
O1570      C1572   1.269       .  A
O1571     Ni1582   1.940       .  S
C1572      O1578   1.268       .  A
C1572      C1621   1.464       .  S
C1573      C1653   1.470       .  S
H1574      O1575   0.966       .  S
O1575     Ni1583   1.908       .  S
O1575     Ni1577   1.906       .  S
O1575     Ni1582   1.915       .  S
O1576     Ni1577   1.940       .  S
Ni1577     O1581   1.896       .  S
Ni1577     O1579   1.899       .  S
O1578     Ni1583   1.912       .  S
C1580      O1581   1.263       .  A
C1580      C1589   1.482       .  S
C1585      H1592   1.084       .  S
C1585      C2182   1.403       .  A
C1586      C2769   1.405       .  A
C1586      C1587   1.414   1_545  A
C1587      C2180   1.404       .  A
C1587      C2186   1.508       .  S
C1588      H1593   1.084       .  S
C1588      C2179   1.407       .  A
C1588      C2773   1.405       .  A
C1589      C1590   1.414       .  A
C1590      C2177   1.404       .  A
C1590      C2183   1.508       .  S
C1591      C2182   1.508       .  S
C1591      H1595   1.111       .  S
C1591      H2188   1.110       .  S
C1591      H2189   1.109       .  S
C1594      C2179   1.507       .  S
C1594      H2190   1.109       .  S
C1594      H2191   1.110       .  S
C1594      H1600   1.111       .  S
H1596      C2183   1.110       .  S
H1597      C2183   1.109       .  S
H1598      C2186   1.109       .  S
H1599      C2186   1.110       .  S
C1601      H1608   1.083       .  S
C1601      C1602   1.410       .  A
C1601      C1606   1.407       .  A
C1602      C1603   1.420       .  A
C1603      C1604   1.406       .  A
C1603      C1610   1.510       .  S
C1604      H1609   1.084       .  S
C1604      C1605   1.408       .  A
C1605      C1606   1.418       .  A
C1606      C1607   1.509       .  S
C1607      H1611   1.111       .  S
C1607      H1612   1.110       .  S
C1607      H1613   1.110       .  S
C1610      H1614   1.110       .  S
C1610      H1615   1.110       .  S
C1610      H1616   1.111       .  S
C1617      H1624   1.084       .  S
C1617      C1618   1.406       .  A
C1617      C1622   1.399       .  A
C1618      C2803   1.412       .  A
C1619      C1620   1.394       .  A
C1619      C1626   1.512       .  S
C1620      H1625   1.085       .  S
C1620      C1621   1.399       .  A
C1622      C2805   1.405       .  A
C1622      C1623   1.505       .  S
C1623      H1627   1.111       .  S
C1623      H1628   1.110       .  S
C1623      H1629   1.110       .  S
C1626      H1630   1.110       .  S
C1626      H1631   1.107       .  S
C1626      H1632   1.111       .  S
C1633      H1640   1.084       .  S
C1633      C2818   1.404       .  A
C1633      C1638   1.408       .  A
C1634      C1635   1.413       .  A
C1635      C1636   1.390       .  A
C1635      C1642   1.504       .  S
C1636      H1641   1.084       .  S
C1637      C2820   1.406       .  A
C1637      C1638   1.420       .  A
C1638      C1639   1.507       .  S
C1639      H1643   1.111       .  S
C1639      H1644   1.110       .  S
C1639      H1645   1.105       .  S
C1642      H1646   1.096       .  S
C1642      H1647   1.109       .  S
C1642      H1648   1.111       .  S
C1649      H1656   1.085       .  S
C1649      C1650   1.400       .  A
C1649      C1654   1.390       .  A
C1650      C1651   1.420       .  A
C1651      C1652   1.410       .  A
C1651      C1658   1.506       .  S
C1652      H1657   1.084       .  S
C1652      C1653   1.402       .  A
C1653      C1654   1.415       .  A
C1654      C1655   1.507       .  S
C1655      H1659   1.110       .  S
C1655      H1660   1.096       .  S
C1655      H1661   1.111       .  S
C1658      H1662   1.111       .  S
C1658      H1663   1.110       .  S
C1658      H1664   1.111       .  S
C1665      H1672   1.084       .  S
C1665      C1666   1.400       .  A
C1665      C1670   1.407       .  A
C1666      C1667   1.413       .  A
C1667      C1668   1.390       .  A
C1667      C1674   1.504       .  S
C1668      H1673   1.084       .  S
C1668      C1669   1.404       .  A
C1669      C1670   1.423       .  A
C1670      C1671   1.506       .  S
C1671      H1675   1.111       .  S
C1671      H1676   1.110       .  S
C1671      H1677   1.103       .  S
C1674      H1678   1.096       .  S
C1674      H1679   1.108       .  S
C1674      H1680   1.111       .  S
C1681      H1688   1.084       .  S
C1681      C1686   1.414       .  A
C1682      C2865   1.405       .  A
C1682      C1683   1.417       .  A
C1683      C1684   1.394       .  A
C1683      C1690   1.510       .  S
C1684      H1689   1.085       .  S
C1684      C2869   1.404       .  A
C1685      C1686   1.420       .  A
C1686      C1687   1.506       .  S
C1687      H1691   1.111       .  S
C1687      H1692   1.111       .  S
C1687      H1693   1.110       .  S
C1690      H1694   1.099       .  S
C1690      H1695   1.111       .  S
C1690      H1696   1.111       .  S
C1697      H1704   1.083       .  S
C1697      C1698   1.403       .  A
C1697      C1702   1.406       .  A
C1698      C2883   1.410       .  A
C1699      C1700   1.403       .  A
C1699      C1706   1.507       .  S
C1700      H1705   1.081       .  S
C1700      C1701   1.402       .  A
C1702      C2885   1.413       .  A
C1702      C1703   1.507       .  S
C1703      H1707   1.111       .  S
C1703      H1708   1.109       .  S
C1703      H1709   1.110       .  S
C1706      H1710   1.110       .  S
C1706      H1711   1.110       .  S
C1706      H1712   1.110       .  S
C1713      H1720   1.084       .  S
C1713      C1714   1.407       .  A
C1713      C1718   1.406       .  A
C1714      C1715   1.414       .  A
C1715      C1716   1.400       .  A
C1715      C1722   1.510       .  S
C1716      H1721   1.085       .  S
C1716      C1717   1.403       .  A
C1717      C1718   1.409       .  A
C1718      C1719   1.506       .  S
C1719      H1723   1.111       .  S
C1719      H1724   1.110       .  S
C1719      H1725   1.111       .  S
C1722      H1726   1.110       .  S
C1722      H1727   1.106       .  S
C1722      H1728   1.111       .  S
C1729      H1736   1.083       .  S
C1729      C1730   1.404       .  A
C1729      C1734   1.404       .  A
C1730      C1731   1.412       .  A
C1731      C1732   1.403       .  A
C1731      C1738   1.507       .  S
C1732      H1737   1.081       .  S
C1732      C1733   1.402       .  A
C1733      C1734   1.410       .  A
C1734      C1735   1.507       .  S
C1735      H1739   1.111       .  S
C1735      H1740   1.110       .  S
C1735      H1741   1.110       .  S
C1738      H1742   1.110       .  S
C1738      H1743   1.110       .  S
C1738      H1744   1.110       .  S
C1745      H1752   1.084       .  S
C1745      C2930   1.405   1_565  A
C1745      C2342   1.401       .  A
C1747      C2340   1.406       .  A
C1747      C1754   1.510       .  S
C1748      H1753   1.083       .  S
C1748      C2339   1.406       .  A
C1749      C2932   1.409       .  A
C1750      C2337   1.401       .  A
C1750      C1751   1.510       .  S
C1751      H2347   1.111       .  S
C1751      H1757   1.108       .  S
C1754      H1758   1.109       .  S
C1754      H2352   1.111       .  S
H1755      C2343   1.111       .  S
H1760      C2346   1.111       .  S
C1761      H1768   1.082       .  S
C1761      C1766   1.406       .  A
C1762      C1763   1.415       .  A
C1763      C1764   1.404       .  A
C1763      C1770   1.508       .  S
C1764      H1769   1.083       .  S
C1765      C1766   1.417       .  A
C1766      C1767   1.509       .  S
C1767      H1771   1.111       .  S
C1767      H1773   1.109       .  S
C1770      H1774   1.109       .  S
C1770      H1776   1.111       .  S
O1777     Ni1783   1.937       .  S
O1777      C1798   1.274       .  A
O1778     Ni1801   1.890       .  S
O1778      C2083   1.265       .  A
O1779     Ni1783   1.922       .  S
O1779     Ni1801   1.906       .  S
O1779     Ni2091   1.908       .  S
O1779      H1802   0.966       .  S
C1780      O1797   1.271       .  A
C1780      O1789   1.276       .  A
C1780      C1997   1.469       .  S
O1781     Ni1800   1.933       .  S
O1781      C1787   1.272       .  A
O1782     Ni1800   1.902       .  S
O1782      C1784   1.267       .  A
Ni1783     O1786   1.932       .  S
Ni1783     O1788   1.897       .  S
C1784      O1794   1.273       .  A
C1784      C2029   1.473       .  S
O1785     Ni1801   1.899       .  S
O1785      C1791   1.269       .  A
O1786      C1791   1.275       .  A
C1787      O2074   1.264   1_554  A
C1787      C2058   1.476       .  S
O1788      C1790   1.269       .  A
O1789     Ni1800   1.938       .  S
C1790      O1796   1.273       .  A
C1790      C1981   1.491       .  S
C1791      C2010   1.480       .  S
H1792      O1793   0.966       .  S
O1793     Ni2097   1.902   1_554  S
O1793     Ni1795   1.901       .  S
O1793     Ni1800   1.916       .  S
O1794     Ni1795   1.939       .  S
Ni1795     O1799   1.893       .  S
Ni1795     O1797   1.902       .  S
Ni1795     O2075   1.910   1_554  S
O1796     Ni1801   1.936       .  S
C1798      O2095   1.262       .  A
C1798      C2042   1.497       .  S
O1799      C2094   1.262   1_554  A
Ni1801     O2089   1.911       .  S
O1803     Ni1809   1.925       .  S
O1803      C1824   1.269       .  A
O1804     Ni1827   1.895       .  S
O1804      C2109   1.262       .  A
O1805     Ni1809   1.916       .  S
O1805     Ni1827   1.897       .  S
O1805     Ni2117   1.902       .  S
O1805      H1828   0.966       .  S
C1806      O1823   1.265       .  A
C1806      O1815   1.268       .  A
C1806      C1962   1.471       .  S
O1807     Ni1826   1.920       .  S
O1807      C1813   1.270       .  A
O1808     Ni1826   1.890       .  S
O1808      C1810   1.271       .  A
Ni1809     O1812   1.927       .  S
Ni1809     O1814   1.890       .  S
C1810      O1820   1.277       .  A
C1810      C1933   1.487       .  S
O1811     Ni1827   1.895       .  S
O1811      C1817   1.265       .  A
O1812      C1817   1.271       .  A
C1813      O2100   1.263   1_554  A
C1813      C2045   1.494   1_554  S
O1814      C1816   1.270       .  A
O1815     Ni1826   1.930       .  S
C1816      O1822   1.274       .  A
C1816      C1946   1.488       .  S
C1817      C1914   1.463       .  S
H1818      O1819   0.966   1_556  S
O1819     Ni2123   1.924   1_554  S
O1819     Ni1821   1.915       .  S
O1819     Ni1826   1.922       .  S
O1820     Ni1821   1.949       .  S
Ni1821     O1825   1.895       .  S
Ni1821     O1823   1.901       .  S
Ni1821     O2101   1.896   1_554  S
O1822     Ni1827   1.944       .  S
C1824      O2121   1.265       .  A
C1824      C2061   1.476       .  S
O1825      C2120   1.266   1_554  A
Ni1827     O2115   1.928       .  S
O1829     Ni1835   1.937       .  S
O1829      C1850   1.271       .  A
O1830     Ni1853   1.893       .  S
O1830      C1839   1.264       .  A
O1831     Ni1835   1.929       .  S
O1831     Ni1853   1.908       .  S
O1831     Ni1847   1.910       .  S
O1831      H1854   0.966       .  S
C1832      O1849   1.268       .  A
C1832      O1841   1.276       .  A
C1832      C2026   1.473       .  S
O1833     Ni1852   1.944       .  S
O1833      C1839   1.275       .  A
O1834     Ni1852   1.905       .  S
O1834      C1836   1.269       .  A
Ni1835     O1838   1.932       .  S
Ni1835     O1840   1.901       .  S
C1836      O1846   1.275       .  A
C1836      C1994   1.478       .  S
O1837     Ni1853   1.898       .  S
O1837      C1843   1.268       .  A
O1838      C1843   1.274       .  A
C1839      C1882   1.487       .  S
O1840      C1842   1.268       .  A
O1841     Ni1852   1.945       .  S
C1842      O1848   1.272       .  A
C1842      C2013   1.471       .  S
C1843      C1978   1.471       .  S
H1844      O1845   0.966       .  S
O1845     Ni1853   1.906       .  S
O1845     Ni1847   1.906       .  S
O1845     Ni1852   1.920       .  S
O1846     Ni1847   1.947       .  S
Ni1847     O1851   1.896       .  S
Ni1847     O1849   1.898       .  S
O1848     Ni1853   1.931       .  S
C1850      O1851   1.265       .  A
C1850      C1901   1.490       .  S
O1855     Ni1861   1.942       .  S
O1855      C1876   1.273       .  A
O1856     Ni1879   1.894       .  S
O1856      C1865   1.264       .  A
O1857     Ni1861   1.929       .  S
O1857     Ni1879   1.904       .  S
O1857     Ni1873   1.910       .  S
O1857      H1880   0.966       .  S
C1858      O1875   1.269       .  A
C1858      O1867   1.274       .  A
C1858      C1930   1.481       .  S
O1859     Ni1878   1.935       .  S
O1859      C1865   1.271       .  A
O1860     Ni1878   1.887       .  S
O1860      C1862   1.269       .  A
Ni1861     O1864   1.939       .  S
Ni1861     O1866   1.901       .  S
C1862      O1872   1.275       .  A
C1862      C1965   1.489       .  S
O1863     Ni1879   1.899       .  S
O1863      C1869   1.268       .  A
O1864      C1869   1.275       .  A
C1865      C1898   1.494       .  S
O1866      C1868   1.268       .  A
O1867     Ni1878   1.940       .  S
C1868      O1874   1.269       .  A
C1868      C1917   1.462       .  S
C1869      C1949   1.475       .  S
H1870      O1871   0.966       .  S
O1871     Ni1879   1.911       .  S
O1871     Ni1873   1.907       .  S
O1871     Ni1878   1.916       .  S
O1872     Ni1873   1.944       .  S
Ni1873     O1877   1.895       .  S
Ni1873     O1875   1.903       .  S
O1874     Ni1879   1.915       .  S
C1876      O1877   1.264       .  A
C1876      C1885   1.482       .  S
C1881      H1888   1.083       .  S
C1882      C3065   1.408       .  A
C1882      C1883   1.415       .  A
C1884      H1889   1.084       .  S
C1884      C3069   1.405       .  A
C1885      C1886   1.413   1_565  A
C1887      H1891   1.111       .  S
C1890      H1896   1.111       .  S
C1897      H1904   1.083       .  S
C1897      C1898   1.409       .  A
C1897      C1902   1.404       .  A
C1898      C1899   1.419       .  A
C1899      C1900   1.404       .  A
C1899      C1906   1.509       .  S
C1900      H1905   1.084       .  S
C1900      C1901   1.406       .  A
C1901      C1902   1.417       .  A
C1902      C1903   1.510       .  S
C1903      H1907   1.111       .  S
C1903      H1908   1.110       .  S
C1903      H1909   1.110       .  S
C1906      H1910   1.110       .  S
C1906      H1911   1.110       .  S
C1906      H1912   1.111       .  S
C1913      H1920   1.085       .  S
C1913      C1914   1.404       .  A
C1913      C1918   1.398       .  A
C1914      C3099   1.410       .  A
C1915      C1916   1.397       .  A
C1915      C1922   1.510       .  S
C1916      H1921   1.085       .  S
C1916      C1917   1.400       .  A
C1918      C3101   1.405       .  A
C1918      C1919   1.506       .  S
C1919      H1923   1.111       .  S
C1919      H1924   1.110       .  S
C1919      H1925   1.110       .  S
C1922      H1926   1.110       .  S
C1922      H1927   1.108       .  S
C1922      H1928   1.111       .  S
C1929      H1936   1.084       .  S
C1929      C3114   1.402       .  A
C1929      C1934   1.407       .  A
C1930      C1931   1.414       .  A
C1931      C1932   1.393       .  A
C1931      C1938   1.505       .  S
C1932      H1937   1.084       .  S
C1933      C3116   1.406       .  A
C1933      C1934   1.421       .  A
C1934      C1935   1.507       .  S
C1935      H1939   1.111       .  S
C1935      H1940   1.110       .  S
C1935      H1941   1.104       .  S
C1938      H1942   1.098       .  S
C1938      H1943   1.108       .  S
C1938      H1944   1.111       .  S
C1945      H1952   1.085       .  S
C1945      C1946   1.402       .  A
C1945      C1950   1.390       .  A
C1946      C1947   1.423       .  A
C1947      C1948   1.413       .  A
C1947      C1954   1.507       .  S
C1948      H1953   1.084       .  S
C1948      C1949   1.403       .  A
C1949      C1950   1.416       .  A
C1950      C1951   1.507       .  S
C1951      H1955   1.110       .  S
C1951      H1956   1.097       .  S
C1951      H1957   1.111       .  S
C1954      H1958   1.110       .  S
C1954      H1959   1.110       .  S
C1954      H1960   1.111       .  S
C1961      H1968   1.084       .  S
C1961      C1962   1.402       .  A
C1961      C1966   1.408       .  A
C1962      C1963   1.412       .  A
C1963      C1964   1.390       .  A
C1963      C1970   1.504       .  S
C1964      H1969   1.084       .  S
C1964      C1965   1.405       .  A
C1965      C1966   1.421       .  A
C1966      C1967   1.506       .  S
C1967      H1971   1.111       .  S
C1967      H1972   1.110       .  S
C1967      H1973   1.103       .  S
C1970      H1974   1.095       .  S
C1970      H1975   1.109       .  S
C1970      H1976   1.111       .  S
C1977      H1984   1.084       .  S
C1977      C1982   1.413       .  A
C1978      C3161   1.403       .  A
C1978      C1979   1.417       .  A
C1979      C1980   1.391       .  A
C1979      C1986   1.508       .  S
C1980      H1985   1.085       .  S
C1980      C3165   1.399       .  A
C1981      C1982   1.421       .  A
C1982      C1983   1.507       .  S
C1983      H1987   1.111       .  S
C1983      H1988   1.111       .  S
C1983      H1989   1.110       .  S
C1986      H1990   1.098       .  S
C1986      H1991   1.111       .  S
C1986      H1992   1.111       .  S
C1993      H2000   1.083       .  S
C1993      C1994   1.403       .  A
C1993      C1998   1.406       .  A
C1994      C3179   1.412       .  A
C1995      C1996   1.402       .  A
C1995      C2002   1.508       .  S
C1996      H2001   1.083       .  S
C1996      C1997   1.401       .  A
C1998      C3181   1.414       .  A
C1998      C1999   1.507       .  S
C1999      H2003   1.111       .  S
C1999      H2004   1.109       .  S
C1999      H2005   1.110       .  S
C2002      H2006   1.109       .  S
C2002      H2007   1.111       .  S
C2002      H2008   1.111       .  S
C2009      H2016   1.084       .  S
C2009      C2010   1.409       .  A
C2009      C2014   1.407       .  A
C2010      C2011   1.415       .  A
C2011      C2012   1.400       .  A
C2011      C2018   1.510       .  S
C2012      H2017   1.085       .  S
C2012      C2013   1.401       .  A
C2013      C2014   1.408       .  A
C2014      C2015   1.505       .  S
C2015      H2019   1.111       .  S
C2015      H2020   1.110       .  S
C2015      H2021   1.110       .  S
C2018      H2022   1.110       .  S
C2018      H2023   1.106       .  S
C2018      H2024   1.111       .  S
C2025      H2032   1.083       .  S
C2025      C2026   1.403       .  A
C2025      C2030   1.404       .  A
C2026      C2027   1.412       .  A
C2027      C2028   1.403       .  A
C2027      C2034   1.507       .  S
C2028      H2033   1.084       .  S
C2028      C2029   1.403       .  A
C2029      C2030   1.412       .  A
C2030      C2031   1.507       .  S
C2031      H2035   1.111       .  S
C2031      H2036   1.109       .  S
C2031      H2037   1.110       .  S
C2034      H2038   1.110       .  S
C2034      H2039   1.110       .  S
C2034      H2040   1.111       .  S
C2041      H2048   1.084       .  S
C2041      C3226   1.406       .  A
C2042      C2339   1.422       .  A
C2043      C2338   1.420   1_554  A
C2043      C2050   1.511       .  S
C2044      H2049   1.083       .  S
C2045      C3228   1.410   1_566  A
C2045      C2342   1.421       .  A
C2046      C2341   1.421       .  A
C2046      C2047   1.511       .  S
C2047      H2348   1.110       .  S
C2047      H2053   1.110       .  S
C2050      H2054   1.110       .  S
C2050      H2351   1.110       .  S
H2052      C2343   1.110       .  S
H2055      C2346   1.110       .  S
C2057      H2064   1.082       .  S
C2057      C2354   1.403       .  A
C2057      C2062   1.399       .  A
C2058      C2353   1.404   1_554  A
C2058      C2059   1.413       .  A
C2059      C2060   1.400       .  A
C2059      C2066   1.509       .  S
C2060      H2065   1.083       .  S
C2060      C2357   1.404   1_554  A
C2061      C2356   1.405       .  A
C2061      C2062   1.414       .  A
C2062      C2063   1.509       .  S
C2063      H2067   1.111       .  S
C2063      H2364   1.110       .  S
C2063      H2069   1.109       .  S
C2066      H2070   1.109       .  S
C2066      H2367   1.110       .  S
C2066      H2072   1.111       .  S
H2068      C2359   1.110       .  S
H2071      C2362   1.110       .  S
O2073     Ni2079   1.940       .  S
O2073      C2094   1.273       .  A
O2074     Ni2097   1.887       .  S
O2075     Ni2079   1.921       .  S
O2075     Ni2097   1.907       .  S
O2075      H2098   0.966       .  S
C2076      O2093   1.266       .  A
C2076      O2085   1.275       .  A
C2076      C2293   1.472       .  S
O2077     Ni2096   1.932       .  S
O2077      C2083   1.272       .  A
O2078     Ni2096   1.905       .  S
O2078      C2080   1.268       .  A
Ni2079     O2082   1.927       .  S
Ni2079     O2084   1.895       .  S
C2080      O2090   1.277       .  A
C2080      C2325   1.479       .  S
O2081     Ni2097   1.901       .  S
O2081      C2087   1.268       .  A
O2082      C2087   1.274       .  A
C2083      C2354   1.476       .  S
O2084      C2086   1.270       .  A
O2085     Ni2096   1.942       .  S
C2086      O2092   1.272       .  A
C2086      C2277   1.489       .  S
C2087      C2306   1.473       .  S
H2088      O2089   0.966       .  S
O2089     Ni2091   1.904       .  S
O2089     Ni2096   1.922       .  S
O2090     Ni2091   1.950       .  S
Ni2091     O2095   1.896       .  S
Ni2091     O2093   1.896       .  S
O2092     Ni2097   1.929       .  S
C2094      C2338   1.495       .  S
O2099     Ni2105   1.924       .  S
O2099      C2120   1.268       .  A
O2100     Ni2123   1.898       .  S
O2101     Ni2105   1.916       .  S
O2101     Ni2123   1.899       .  S
O2101      H2124   0.966       .  S
C2102      O2119   1.266       .  A
C2102      O2111   1.268       .  A
C2102      C2258   1.478       .  S
O2103     Ni2122   1.917       .  S
O2103      C2109   1.270       .  A
O2104     Ni2122   1.887       .  S
O2104      C2106   1.271       .  A
Ni2105     O2108   1.922       .  S
Ni2105     O2110   1.889       .  S
C2106      O2116   1.279       .  A
C2106      C2229   1.489       .  S
O2107     Ni2123   1.891       .  S
O2107      C2113   1.266       .  A
O2108      C2113   1.271       .  A
C2109      C2341   1.490       .  S
O2110      C2112   1.269       .  A
O2111     Ni2122   1.933       .  S
C2112      O2118   1.273       .  A
C2112      C2242   1.487       .  S
C2113      C2210   1.461       .  S
H2114      O2115   0.966       .  S
O2115     Ni2117   1.911       .  S
O2115     Ni2122   1.921       .  S
O2116     Ni2117   1.954       .  S
Ni2117     O2121   1.896       .  S
Ni2117     O2119   1.906       .  S
O2118     Ni2123   1.940       .  S
C2120      C2357   1.480       .  S
O2125     Ni2131   1.938       .  S
O2125      C2146   1.272       .  A
O2126     Ni2149   1.900       .  S
O2126      C2135   1.266       .  A
O2127     Ni2131   1.931       .  S
O2127     Ni2149   1.911       .  S
O2127     Ni2143   1.917       .  S
O2127      H2150   0.966       .  S
C2128      O2145   1.267       .  A
C2128      O2137   1.277       .  A
C2128      C2322   1.483       .  S
O2129     Ni2148   1.945       .  S
O2129      C2135   1.275       .  A
O2130     Ni2148   1.901       .  S
O2130      C2132   1.268       .  A
Ni2131     O2134   1.940       .  S
Ni2131     O2136   1.896       .  S
C2132      O2142   1.276       .  A
C2132      C2290   1.472       .  S
O2133     Ni2149   1.898       .  S
O2133      C2139   1.266       .  A
O2134      C2139   1.273       .  A
C2135      C2178   1.491       .  S
O2136      C2138   1.268       .  A
O2137     Ni2148   1.955       .  S
C2138      O2144   1.274       .  A
C2138      C2309   1.465       .  S
C2139      C2274   1.477       .  S
H2140      O2141   0.966       .  S
O2141     Ni2149   1.911       .  S
O2141     Ni2143   1.906       .  S
O2141     Ni2148   1.924       .  S
O2142     Ni2143   1.945       .  S
Ni2143     O2147   1.899       .  S
Ni2143     O2145   1.899       .  S
O2144     Ni2149   1.937       .  S
C2146      O2147   1.266       .  A
C2146      C2197   1.492       .  S
O2151     Ni2157   1.942       .  S
O2151      C2172   1.273       .  A
O2152     Ni2175   1.892       .  S
O2152      C2161   1.263       .  A
O2153     Ni2157   1.929       .  S
O2153     Ni2175   1.904       .  S
O2153     Ni2169   1.905       .  S
O2153      H2176   0.966       .  S
C2154      O2171   1.268       .  A
C2154      O2163   1.272       .  A
C2154      C2226   1.472       .  S
O2155     Ni2174   1.937       .  S
O2155      C2161   1.271       .  A
O2156     Ni2174   1.888       .  S
O2156      C2158   1.269       .  A
Ni2157     O2160   1.939       .  S
Ni2157     O2162   1.899       .  S
C2158      O2168   1.273       .  A
C2158      C2261   1.488       .  S
O2159     Ni2175   1.894       .  S
O2159      C2165   1.267       .  A
O2160      C2165   1.276       .  A
C2161      C2194   1.490       .  S
O2162      C2164   1.267       .  A
O2163     Ni2174   1.932       .  S
C2164      O2170   1.268       .  A
C2164      C2213   1.457       .  S
C2165      C2245   1.472       .  S
H2166      O2167   0.966       .  S
O2167     Ni2175   1.908       .  S
O2167     Ni2169   1.912       .  S
O2167     Ni2174   1.916       .  S
O2168     Ni2169   1.942       .  S
Ni2169     O2173   1.890       .  S
Ni2169     O2171   1.898       .  S
O2170     Ni2175   1.915       .  S
C2172      O2173   1.263       .  A
C2172      C2181   1.482       .  S
C2177      H2184   1.084       .  S
C2178      C3361   1.408       .  A
C2178      C2179   1.415       .  A
C2180      H2185   1.083       .  S
C2180      C3365   1.406       .  A
C2181      C2182   1.413   1_565  A
C2183      H2187   1.111       .  S
C2186      H2192   1.111       .  S
C2193      H2200   1.084       .  S
C2193      C2194   1.407       .  A
C2193      C2198   1.403       .  A
C2194      C2195   1.416       .  A
C2195      C2196   1.407       .  A
C2195      C2202   1.508       .  S
C2196      H2201   1.084       .  S
C2196      C2197   1.409       .  A
C2197      C2198   1.418       .  A
C2198      C2199   1.509       .  S
C2199      H2203   1.111       .  S
C2199      H2204   1.110       .  S
C2199      H2205   1.109       .  S
C2202      H2206   1.109       .  S
C2202      H2207   1.110       .  S
C2202      H2208   1.111       .  S
C2209      H2216   1.085       .  S
C2209      C2210   1.406       .  A
C2209      C2214   1.397       .  A
C2210      C3395   1.410       .  A
C2211      C2212   1.396       .  A
C2211      C2218   1.510       .  S
C2212      H2217   1.084       .  S
C2212      C2213   1.399       .  A
C2214      C3397   1.404       .  A
C2214      C2215   1.506       .  S
C2215      H2219   1.111       .  S
C2215      H2220   1.110       .  S
C2215      H2221   1.110       .  S
C2218      H2222   1.110       .  S
C2218      H2223   1.107       .  S
C2218      H2224   1.111       .  S
C2225      H2232   1.084       .  S
C2225      C3410   1.403       .  A
C2225      C2230   1.408       .  A
C2226      C2227   1.414       .  A
C2227      C2228   1.394       .  A
C2227      C2234   1.507       .  S
C2228      H2233   1.084       .  S
C2229      C3412   1.406       .  A
C2229      C2230   1.420       .  A
C2230      C2231   1.506       .  S
C2231      H2235   1.111       .  S
C2231      H2236   1.110       .  S
C2231      H2237   1.104       .  S
C2234      H2238   1.100       .  S
C2234      H2239   1.109       .  S
C2234      H2240   1.111       .  S
C2241      H2248   1.085       .  S
C2241      C2242   1.402       .  A
C2241      C2246   1.390       .  A
C2242      C2243   1.422       .  A
C2243      C2244   1.411       .  A
C2243      C2250   1.508       .  S
C2244      H2249   1.084       .  S
C2244      C2245   1.402       .  A
C2245      C2246   1.416       .  A
C2246      C2247   1.508       .  S
C2247      H2251   1.110       .  S
C2247      H2252   1.099       .  S
C2247      H2253   1.111       .  S
C2250      H2254   1.111       .  S
C2250      H2255   1.110       .  S
C2250      H2256   1.111       .  S
C2257      H2264   1.084       .  S
C2257      C2258   1.405       .  A
C2257      C2262   1.412       .  A
C2258      C2259   1.412       .  A
C2259      C2260   1.386       .  A
C2259      C2266   1.501       .  S
C2260      H2265   1.084       .  S
C2260      C2261   1.403       .  A
C2261      C2262   1.421       .  A
C2262      C2263   1.507       .  S
C2263      H2267   1.111       .  S
C2263      H2268   1.111       .  S
C2263      H2269   1.106       .  S
C2266      H2270   1.092       .  S
C2266      H2271   1.108       .  S
C2266      H2272   1.111       .  S
C2273      H2280   1.084       .  S
C2273      C2278   1.410       .  A
C2274      C3457   1.403       .  A
C2274      C2275   1.416       .  A
C2275      C2276   1.393       .  A
C2275      C2282   1.508       .  S
C2276      H2281   1.085       .  S
C2276      C3461   1.403       .  A
C2277      C2278   1.421       .  A
C2278      C2279   1.507       .  S
C2279      H2283   1.111       .  S
C2279      H2284   1.111       .  S
C2279      H2285   1.110       .  S
C2282      H2286   1.097       .  S
C2282      H2287   1.111       .  S
C2282      H2288   1.110       .  S
C2289      H2296   1.084       .  S
C2289      C2290   1.403       .  A
C2289      C2294   1.402       .  A
C2290      C3475   1.412       .  A
C2291      C2292   1.403       .  A
C2291      C2298   1.507       .  S
C2292      H2297   1.084       .  S
C2292      C2293   1.403       .  A
C2294      C3477   1.411       .  A
C2294      C2295   1.507       .  S
C2295      H2299   1.111       .  S
C2295      H2300   1.109       .  S
C2295      H2301   1.110       .  S
C2298      H2302   1.110       .  S
C2298      H2303   1.110       .  S
C2298      H2304   1.111       .  S
C2305      H2312   1.084       .  S
C2305      C2306   1.406       .  A
C2305      C2310   1.404       .  A
C2306      C2307   1.413       .  A
C2307      C2308   1.401       .  A
C2307      C2314   1.508       .  S
C2308      H2313   1.085       .  S
C2308      C2309   1.402       .  A
C2309      C2310   1.406       .  A
C2310      C2311   1.505       .  S
C2311      H2315   1.111       .  S
C2311      H2316   1.110       .  S
C2311      H2317   1.111       .  S
C2314      H2318   1.110       .  S
C2314      H2319   1.108       .  S
C2314      H2320   1.111       .  S
C2321      H2328   1.083       .  S
C2321      C2322   1.406       .  A
C2321      C2326   1.408       .  A
C2322      C2323   1.414       .  A
C2323      C2324   1.405       .  A
C2323      C2330   1.507       .  S
C2324      H2329   1.084       .  S
C2324      C2325   1.402       .  A
C2325      C2326   1.414       .  A
C2326      C2327   1.507       .  S
C2327      H2331   1.111       .  S
C2327      H2332   1.110       .  S
C2327      H2333   1.110       .  S
C2330      H2334   1.109       .  S
C2330      H2335   1.110       .  S
C2330      H2336   1.111       .  S
C2337      H2344   1.084       .  S
C2337      C3522   1.404       .  A
C2339      C2346   1.510       .  S
C2340      H2345   1.083       .  S
C2341      C3524   1.406   1_565  A
C2342      C2343   1.511       .  S
C2343      H2349   1.109       .  S
C2346      H2350   1.109       .  S
C2353      H2360   1.084       .  S
C2353      C2358   1.401       .  A
C2354      C2355   1.413       .  A
C2355      C2356   1.403       .  A
C2355      C2362   1.508       .  S
C2356      H2361   1.084       .  S
C2357      C2358   1.417       .  A
C2358      C2359   1.509       .  S
C2359      H2363   1.111       .  S
C2359      H2365   1.109       .  S
C2362      H2366   1.109       .  S
C2362      H2368   1.111       .  S
O2369     Ni2375   1.923       .  S
O2369      C2390   1.271       .  A
O2370     Ni2393   1.894       .  S
O2370      C2675   1.265       .  A
O2371     Ni2375   1.926       .  S
O2371     Ni2393   1.907       .  S
O2371     Ni2683   1.920       .  S
O2371      H2394   0.966       .  S
C2372      O2389   1.266       .  A
C2372      O2381   1.273       .  A
C2372      C2589   1.475       .  S
O2373     Ni2392   1.925       .  S
O2373      C2379   1.270       .  A
O2374     Ni2392   1.898       .  S
O2374      C2376   1.267       .  A
Ni2375     O2378   1.932       .  S
Ni2375     O2380   1.892       .  S
C2376      O2386   1.278       .  A
C2376      C2621   1.474       .  S
O2377     Ni2393   1.897       .  S
O2377      C2383   1.264       .  A
O2378      C2383   1.271       .  A
C2379      O2666   1.264   1_554  A
C2379      C2650   1.471       .  S
O2380      C2382   1.270       .  A
O2381     Ni2392   1.942       .  S
C2382      O2388   1.277       .  A
C2382      C2573   1.490       .  S
C2383      C2602   1.481       .  S
H2384      O2385   0.966       .  S
O2385     Ni2689   1.915   1_554  S
O2385     Ni2387   1.903       .  S
O2385     Ni2392   1.924       .  S
O2386     Ni2387   1.952       .  S
Ni2387     O2391   1.899       .  S
Ni2387     O2389   1.902       .  S
Ni2387     O2667   1.918   1_554  S
O2388     Ni2393   1.948       .  S
C2390      O2687   1.265       .  A
C2390      C2634   1.487       .  S
O2391      C2686   1.264   1_554  A
Ni2393     O2681   1.912       .  S
O2395     Ni2401   1.926       .  S
O2395      C2416   1.269       .  A
O2396     Ni2419   1.898       .  S
O2396      C2701   1.264       .  A
O2397     Ni2401   1.918       .  S
O2397     Ni2419   1.904       .  S
O2397     Ni2709   1.906       .  S
O2397      H2420   0.966       .  S
C2398      O2415   1.266       .  A
C2398      O2407   1.269       .  A
C2398      C2554   1.475       .  S
O2399     Ni2418   1.923       .  S
O2399      C2405   1.270       .  A
O2400     Ni2418   1.886       .  S
O2400      C2402   1.269       .  A
Ni2401     O2404   1.927       .  S
Ni2401     O2406   1.885       .  S
C2402      O2412   1.276       .  A
C2402      C2525   1.486       .  S
O2403     Ni2419   1.895       .  S
O2403      C2409   1.265       .  A
O2404      C2409   1.270       .  A
C2405      O2692   1.263   1_554  A
C2405      C2637   1.488       .  S
O2406      C2408   1.269       .  A
O2407     Ni2418   1.934       .  S
C2408      O2414   1.274       .  A
C2408      C2538   1.486       .  S
C2409      C2506   1.463       .  S
H2410      O2411   0.966   1_556  S
O2411     Ni2715   1.921   1_554  S
O2411     Ni2413   1.912       .  S
O2411     Ni2418   1.922       .  S
O2412     Ni2413   1.949       .  S
Ni2413     O2417   1.892       .  S
Ni2413     O2415   1.903       .  S
Ni2413     O2693   1.903   1_554  S
O2414     Ni2419   1.944       .  S
C2416      O2713   1.267       .  A
C2416      C2653   1.484       .  S
O2417      C2712   1.264   1_554  A
Ni2419     O2707   1.922       .  S
O2421     Ni2427   1.936       .  S
O2421      C2442   1.272       .  A
O2422     Ni2445   1.900       .  S
O2422      C2431   1.266       .  A
O2423     Ni2427   1.931       .  S
O2423     Ni2445   1.916       .  S
O2423     Ni2439   1.923       .  S
O2423      H2446   0.966       .  S
C2424      O2441   1.268       .  A
C2424      O2433   1.275       .  A
C2424      C2618   1.475       .  S
O2425     Ni2444   1.939       .  S
O2425      C2431   1.273       .  A
O2426     Ni2444   1.901       .  S
O2426      C2428   1.268       .  A
Ni2427     O2430   1.944       .  S
Ni2427     O2432   1.894       .  S
C2428      O2438   1.276       .  A
C2428      C2586   1.475       .  S
O2429     Ni2445   1.899       .  S
O2429      C2435   1.265       .  A
O2430      C2435   1.273       .  A
C2431      C2474   1.489       .  S
O2432      C2434   1.267       .  A
O2433     Ni2444   1.941       .  S
C2434      O2440   1.275       .  A
C2434      C2605   1.465       .  S
C2435      C2570   1.479       .  S
H2436      O2437   0.966       .  S
O2437     Ni2445   1.903       .  S
O2437     Ni2439   1.905       .  S
O2437     Ni2444   1.921       .  S
O2438     Ni2439   1.947       .  S
Ni2439     O2443   1.903       .  S
Ni2439     O2441   1.901       .  S
O2440     Ni2445   1.940       .  S
C2442      O2443   1.267       .  A
C2442      C2493   1.500       .  S
O2447     Ni2453   1.939       .  S
O2447      C2468   1.272       .  A
O2448     Ni2471   1.899       .  S
O2448      C2457   1.266       .  A
O2449     Ni2453   1.924       .  S
O2449     Ni2471   1.905       .  S
O2449     Ni2465   1.905       .  S
O2449      H2472   0.966       .  S
C2450      O2467   1.270       .  A
C2450      O2459   1.275       .  A
C2450      C2522   1.473       .  S
O2451     Ni2470   1.940       .  S
O2451      C2457   1.272       .  A
O2452     Ni2470   1.891       .  S
O2452      C2454   1.269       .  A
Ni2453     O2456   1.929       .  S
Ni2453     O2458   1.898       .  S
C2454      O2464   1.272       .  A
C2454      C2557   1.485       .  S
O2455     Ni2471   1.900       .  S
O2455      C2461   1.270       .  A
O2456      C2461   1.275       .  A
C2457      C2490   1.496       .  S
O2458      C2460   1.268       .  A
O2459     Ni2470   1.941       .  S
C2460      O2466   1.268       .  A
C2460      C2509   1.454       .  S
C2461      C2541   1.472       .  S
H2462      O2463   0.966       .  S
O2463     Ni2471   1.908       .  S
O2463     Ni2465   1.911       .  S
O2463     Ni2470   1.910       .  S
O2464     Ni2465   1.941       .  S
Ni2465     O2469   1.899       .  S
Ni2465     O2467   1.898       .  S
O2466     Ni2471   1.910       .  S
C2468      O2469   1.265       .  A
C2468      C2477   1.485       .  S
C2473      H2480   1.085       .  S
C2473      C3070   1.404       .  A
C2474      C2475   1.417   1_545  A
C2475      C3068   1.405   1_655  A
C2475      C3074   1.508       .  S
C2476      H2481   1.083       .  S
C2476      C3067   1.404       .  A
C2477      C2478   1.415       .  A
C2478      C3065   1.406       .  A
C2478      C3071   1.508       .  S
C2479      C3070   1.508       .  S
C2479      H2483   1.111       .  S
C2479      H3076   1.111       .  S
C2479      H3077   1.109       .  S
C2482      C3067   1.508       .  S
C2482      H3078   1.109       .  S
C2482      H3079   1.110       .  S
C2482      H2488   1.111       .  S
H2484      C3071   1.110       .  S
H2485      C3071   1.110       .  S
H2486      C3074   1.109       .  S
H2487      C3074   1.110       .  S
C2489      H2496   1.083       .  S
C2489      C2490   1.407       .  A
C2489      C2494   1.405       .  A
C2490      C2491   1.418       .  A
C2491      C2492   1.408       .  A
C2491      C2498   1.509       .  S
C2492      H2497   1.084       .  S
C2492      C2493   1.410       .  A
C2493      C2494   1.421       .  A
C2494      C2495   1.509       .  S
C2495      H2499   1.111       .  S
C2495      H2500   1.110       .  S
C2495      H2501   1.110       .  S
C2498      H2502   1.109       .  S
C2498      H2503   1.110       .  S
C2498      H2504   1.111       .  S
C2505      H2512   1.085       .  S
C2505      C2506   1.404       .  A
C2505      C2510   1.399       .  A
C2507      C2508   1.394       .  A
C2507      C2514   1.510       .  S
C2508      H2513   1.084       .  S
C2508      C2509   1.398       .  A
C2510      C2511   1.507       .  S
C2511      H2515   1.111       .  S
C2511      H2516   1.110       .  S
C2511      H2517   1.110       .  S
C2514      H2518   1.110       .  S
C2514      H2519   1.107       .  S
C2514      H2520   1.111       .  S
C2521      H2528   1.084       .  S
C2521      C2526   1.407       .  A
C2522      C2523   1.413       .  A
C2523      C2524   1.391       .  A
C2523      C2530   1.505       .  S
C2524      H2529   1.084       .  S
C2525      C2526   1.420       .  A
C2526      C2527   1.506       .  S
C2527      H2531   1.111       .  S
C2527      H2532   1.110       .  S
C2527      H2533   1.103       .  S
C2530      H2534   1.098       .  S
C2530      H2535   1.108       .  S
C2530      H2536   1.111       .  S
C2537      H2544   1.085       .  S
C2537      C2538   1.402       .  A
C2537      C2542   1.389       .  A
C2538      C2539   1.421       .  A
C2539      C2540   1.411       .  A
C2539      C2546   1.507       .  S
C2540      H2545   1.084       .  S
C2540      C2541   1.404       .  A
C2541      C2542   1.416       .  A
C2542      C2543   1.510       .  S
C2543      H2547   1.110       .  S
C2543      H2548   1.100       .  S
C2543      H2549   1.110       .  S
C2546      H2550   1.110       .  S
C2546      H2551   1.110       .  S
C2546      H2552   1.111       .  S
C2553      H2560   1.084       .  S
C2553      C2554   1.404       .  A
C2553      C2558   1.410       .  A
C2554      C2555   1.413       .  A
C2555      C2556   1.386       .  A
C2555      C2562   1.500       .  S
C2556      H2561   1.084       .  S
C2556      C2557   1.402       .  A
C2557      C2558   1.421       .  A
C2558      C2559   1.507       .  S
C2559      H2563   1.111       .  S
C2559      H2564   1.110       .  S
C2559      H2565   1.104       .  S
C2562      H2566   1.091       .  S
C2562      H2567   1.108       .  S
C2562      H2568   1.111       .  S
C2569      H2576   1.084       .  S
C2569      C2574   1.411       .  A
C2570      C2571   1.416       .  A
C2571      C2572   1.393   1_655  A
C2571      C2578   1.507       .  S
C2572      H2577   1.085       .  S
C2573      C2574   1.421       .  A
C2574      C2575   1.507       .  S
C2575      H2579   1.111       .  S
C2575      H2580   1.111       .  S
C2575      H2581   1.110       .  S
C2578      H2582   1.096       .  S
C2578      H2583   1.111       .  S
C2578      H2584   1.111       .  S
C2585      H2592   1.084       .  S
C2585      C2586   1.404       .  A
C2585      C2590   1.405       .  A
C2587      C2588   1.404       .  A
C2587      C2594   1.507       .  S
C2588      H2593   1.083       .  S
C2588      C2589   1.404       .  A
C2590      C2591   1.507       .  S
C2591      H2595   1.111       .  S
C2591      H2596   1.109       .  S
C2591      H2597   1.111       .  S
C2594      H2598   1.110       .  S
C2594      H2599   1.110       .  S
C2594      H2600   1.111       .  S
C2601      H2608   1.084       .  S
C2601      C2602   1.410       .  A
C2601      C2606   1.404       .  A
C2602      C2603   1.417       .  A
C2603      C2604   1.401       .  A
C2603      C2610   1.509       .  S
C2604      H2609   1.085       .  S
C2604      C2605   1.400       .  A
C2605      C2606   1.405       .  A
C2606      C2607   1.506       .  S
C2607      H2611   1.111       .  S
C2607      H2612   1.110       .  S
C2607      H2613   1.111       .  S
C2610      H2614   1.110       .  S
C2610      H2615   1.108       .  S
C2610      H2616   1.111       .  S
C2617      H2624   1.084       .  S
C2617      C2618   1.404       .  A
C2617      C2622   1.404       .  A
C2618      C2619   1.412       .  A
C2619      C2620   1.403       .  A
C2619      C2626   1.507       .  S
C2620      H2625   1.083       .  S
C2620      C2621   1.402       .  A
C2621      C2622   1.413       .  A
C2622      C2623   1.508       .  S
C2623      H2627   1.111       .  S
C2623      H2628   1.109       .  S
C2623      H2629   1.111       .  S
C2626      H2630   1.109       .  S
C2626      H2631   1.110       .  S
C2626      H2632   1.111       .  S
C2633      H2640   1.084       .  S
C2633      C3230   1.402   1_545  A
C2634      C2931   1.417       .  A
C2635      C2930   1.418   1_554  A
C2635      C3228   1.404       .  A
C2635      C2642   1.510       .  S
C2636      H2641   1.083       .  S
C2636      C3227   1.404       .  A
C2637      C2934   1.421   1_654  A
C2638      C3225   1.402       .  A
C2638      C2933   1.420   1_455  A
C2638      C2639   1.511       .  S
C2639      H3235   1.111       .  S
C2639      H2940   1.110   1_455  S
C2639      H2645   1.110       .  S
C2642      H2646   1.110       .  S
C2642      H2943   1.110       .  S
C2642      H3240   1.111       .  S
H2643      C3231   1.111       .  S
H2644      C2935   1.110   1_655  S
H2647      C2938   1.110       .  S
H2648      C3234   1.111       .  S
C2649      H2656   1.084       .  S
C2649      C2946   1.406       .  A
C2649      C2654   1.403       .  A
C2650      C2945   1.404   1_554  A
C2650      C2651   1.412       .  A
C2651      C2652   1.400       .  A
C2651      C2658   1.508       .  S
C2652      H2657   1.084       .  S
C2652      C2949   1.403   1_554  A
C2653      C2948   1.404       .  A
C2653      C2654   1.416       .  A
C2654      C2655   1.509       .  S
C2655      H2659   1.111       .  S
C2655      H2956   1.110       .  S
C2655      H2661   1.109       .  S
C2658      H2662   1.109       .  S
C2658      H2959   1.110       .  S
C2658      H2664   1.111       .  S
H2660      C2951   1.110       .  S
H2663      C2954   1.110       .  S
O2665     Ni2671   1.922       .  S
O2665      C2686   1.271       .  A
O2666     Ni2689   1.888       .  S
O2667     Ni2671   1.922       .  S
O2667     Ni2689   1.908       .  S
O2667      H2690   0.966       .  S
C2668      O2685   1.268       .  A
C2668      O2677   1.274       .  A
C2668      C2885   1.480       .  S
O2669     Ni2688   1.935       .  S
O2669      C2675   1.272       .  A
O2670     Ni2688   1.903       .  S
O2670      C2672   1.269       .  A
Ni2671     O2674   1.930       .  S
Ni2671     O2676   1.889       .  S
C2672      O2682   1.276       .  A
C2672      C2917   1.474       .  S
O2673     Ni2689   1.904       .  S
O2673      C2679   1.266       .  A
O2674      C2679   1.271       .  A
C2675      C2946   1.486       .  S
O2676      C2678   1.269       .  A
O2677     Ni2688   1.943       .  S
C2678      O2684   1.278       .  A
C2678      C2869   1.495       .  S
C2679      C2898   1.480       .  S
H2680      O2681   0.966       .  S
O2681     Ni2683   1.905       .  S
O2681     Ni2688   1.923       .  S
O2682     Ni2683   1.946       .  S
Ni2683     O2687   1.898       .  S
Ni2683     O2685   1.908       .  S
O2684     Ni2689   1.954       .  S
C2686      C2930   1.488       .  S
O2691     Ni2697   1.920       .  S
O2691      C2712   1.268       .  A
O2692     Ni2715   1.893       .  S
O2693     Ni2697   1.917       .  S
O2693     Ni2715   1.899       .  S
O2693      H2716   0.966       .  S
C2694      O2711   1.267       .  A
C2694      O2703   1.270       .  A
C2694      C2850   1.477       .  S
O2695     Ni2714   1.925       .  S
O2695      C2701   1.270       .  A
O2696     Ni2714   1.889       .  S
O2696      C2698   1.270       .  A
Ni2697     O2700   1.922       .  S
Ni2697     O2702   1.889       .  S
C2698      O2708   1.276       .  A
C2698      C2821   1.487       .  S
O2699     Ni2715   1.895       .  S
O2699      C2705   1.264       .  A
O2700      C2705   1.269       .  A
C2701      C2933   1.492       .  S
O2702      C2704   1.270       .  A
O2703     Ni2714   1.935       .  S
C2704      O2710   1.276       .  A
C2704      C2834   1.492       .  S
C2705      C2802   1.460       .  S
H2706      O2707   0.966       .  S
O2707     Ni2709   1.916       .  S
O2707     Ni2714   1.922       .  S
O2708     Ni2709   1.950       .  S
Ni2709     O2713   1.901       .  S
Ni2709     O2711   1.905       .  S
O2710     Ni2715   1.949       .  S
C2712      C2949   1.472       .  S
O2717     Ni2723   1.929       .  S
O2717      C2738   1.271       .  A
O2718     Ni2741   1.890       .  S
O2718      C2727   1.264       .  A
O2719     Ni2723   1.927       .  S
O2719     Ni2741   1.908       .  S
O2719     Ni2735   1.923       .  S
O2719      H2742   0.966       .  S
C2720      O2737   1.267       .  A
C2720      O2729   1.274       .  A
C2720      C2914   1.477       .  S
O2721     Ni2740   1.936       .  S
O2721      C2727   1.272       .  A
O2722     Ni2740   1.898       .  S
O2722      C2724   1.268       .  A
Ni2723     O2726   1.945       .  S
Ni2723     O2728   1.898       .  S
C2724      O2734   1.277       .  A
C2724      C2882   1.473       .  S
O2725     Ni2741   1.902       .  S
O2725      C2731   1.266       .  A
O2726      C2731   1.273       .  A
C2727      C2770   1.483       .  S
O2728      C2730   1.268       .  A
O2729     Ni2740   1.945       .  S
C2730      O2736   1.275       .  A
C2730      C2901   1.467       .  S
C2731      C2866   1.480       .  S
H2732      O2733   0.966       .  S
O2733     Ni2741   1.909       .  S
O2733     Ni2735   1.903       .  S
O2733     Ni2740   1.923       .  S
O2734     Ni2735   1.948       .  S
Ni2735     O2739   1.899       .  S
Ni2735     O2737   1.901       .  S
O2736     Ni2741   1.945       .  S
C2738      O2739   1.267       .  A
C2738      C2789   1.489       .  S
O2743     Ni2749   1.941       .  S
O2743      C2764   1.272       .  A
O2744     Ni2767   1.897       .  S
O2744      C2753   1.265       .  A
O2745     Ni2749   1.930       .  S
O2745     Ni2767   1.908       .  S
O2745     Ni2761   1.910       .  S
O2745      H2768   0.966       .  S
C2746      O2763   1.268       .  A
C2746      O2755   1.271       .  A
C2746      C2818   1.476       .  S
O2747     Ni2766   1.931       .  S
O2747      C2753   1.269       .  A
O2748     Ni2766   1.890       .  S
O2748      C2750   1.270       .  A
Ni2749     O2752   1.939       .  S
Ni2749     O2754   1.896       .  S
C2750      O2760   1.277       .  A
C2750      C2853   1.492       .  S
O2751     Ni2767   1.900       .  S
O2751      C2757   1.268       .  A
O2752      C2757   1.275       .  A
C2753      C2786   1.488       .  S
O2754      C2756   1.267       .  A
O2755     Ni2766   1.933       .  S
C2756      O2762   1.270       .  A
C2756      C2805   1.456       .  S
C2757      C2837   1.476       .  S
H2758      O2759   0.966       .  S
O2759     Ni2767   1.914       .  S
O2759     Ni2761   1.912       .  S
O2759     Ni2766   1.921       .  S
O2760     Ni2761   1.950       .  S
Ni2761     O2765   1.902       .  S
Ni2761     O2763   1.901       .  S
O2762     Ni2767   1.922       .  S
C2764      O2765   1.266       .  A
C2764      C2773   1.489       .  S
C2769      H2776   1.085       .  S
C2769      C3366   1.405       .  A
C2770      C2771   1.415   1_545  A
C2771      C3364   1.403       .  A
C2771      C3370   1.508       .  S
C2772      H2777   1.084       .  S
C2772      C3363   1.404       .  A
C2773      C2774   1.415       .  A
C2774      C3361   1.408       .  A
C2774      C3367   1.507       .  S
C2775      C3366   1.508       .  S
C2775      H2779   1.111       .  S
C2775      H3372   1.110       .  S
C2775      H3373   1.109       .  S
C2778      C3363   1.508       .  S
C2778      H3374   1.109       .  S
C2778      H3375   1.111       .  S
C2778      H2784   1.111       .  S
H2780      C3367   1.110       .  S
H2781      C3367   1.109       .  S
H2782      C3370   1.110       .  S
H2783      C3370   1.110       .  S
C2785      H2792   1.084       .  S
C2785      C2786   1.405       .  A
C2785      C2790   1.402       .  A
C2786      C2787   1.417       .  A
C2787      C2788   1.406       .  A
C2787      C2794   1.508       .  S
C2788      H2793   1.084       .  S
C2788      C2789   1.408       .  A
C2789      C2790   1.418       .  A
C2790      C2791   1.509       .  S
C2791      H2795   1.111       .  S
C2791      H2796   1.110       .  S
C2791      H2797   1.109       .  S
C2794      H2798   1.109       .  S
C2794      H2799   1.110       .  S
C2794      H2800   1.111       .  S
C2801      H2808   1.085       .  S
C2801      C2802   1.403       .  A
C2801      C2806   1.396       .  A
C2803      C2804   1.398       .  A
C2803      C2810   1.508       .  S
C2804      H2809   1.084       .  S
C2804      C2805   1.400       .  A
C2806      C2807   1.507       .  S
C2807      H2811   1.111       .  S
C2807      H2812   1.110       .  S
C2807      H2813   1.110       .  S
C2810      H2814   1.110       .  S
C2810      H2815   1.109       .  S
C2810      H2816   1.111       .  S
C2817      H2824   1.084       .  S
C2817      C2822   1.409       .  A
C2818      C2819   1.413       .  A
C2819      C2820   1.392       .  A
C2819      C2826   1.506       .  S
C2820      H2825   1.084       .  S
C2821      C2822   1.420       .  A
C2822      C2823   1.507       .  S
C2823      H2827   1.111       .  S
C2823      H2828   1.110       .  S
C2823      H2829   1.104       .  S
C2826      H2830   1.098       .  S
C2826      H2831   1.108       .  S
C2826      H2832   1.111       .  S
C2833      H2840   1.084       .  S
C2833      C2834   1.405       .  A
C2833      C2838   1.392       .  A
C2834      C2835   1.423       .  A
C2835      C2836   1.412       .  A
C2835      C2842   1.507       .  S
C2836      H2841   1.084       .  S
C2836      C2837   1.403       .  A
C2837      C2838   1.415       .  A
C2838      C2839   1.509       .  S
C2839      H2843   1.110       .  S
C2839      H2844   1.099       .  S
C2839      H2845   1.111       .  S
C2842      H2846   1.110       .  S
C2842      H2847   1.110       .  S
C2842      H2848   1.111       .  S
C2849      H2856   1.084       .  S
C2849      C2850   1.404       .  A
C2849      C2854   1.410       .  A
C2850      C2851   1.413       .  A
C2851      C2852   1.391       .  A
C2851      C2858   1.503       .  S
C2852      H2857   1.084       .  S
C2852      C2853   1.405       .  A
C2853      C2854   1.421       .  A
C2854      C2855   1.506       .  S
C2855      H2859   1.111       .  S
C2855      H2860   1.111       .  S
C2855      H2861   1.105       .  S
C2858      H2862   1.094       .  S
C2858      H2863   1.109       .  S
C2858      H2864   1.111       .  S
C2865      H2872   1.084       .  S
C2865      C2870   1.415       .  A
C2866      C2867   1.415       .  A
C2867      C2868   1.394   1_655  A
C2867      C2874   1.507       .  S
C2868      H2873   1.085       .  S
C2869      C2870   1.421       .  A
C2870      C2871   1.506       .  S
C2871      H2875   1.111       .  S
C2871      H2876   1.111       .  S
C2871      H2877   1.110       .  S
C2874      H2878   1.097       .  S
C2874      H2879   1.111       .  S
C2874      H2880   1.110       .  S
C2881      H2888   1.084       .  S
C2881      C2882   1.405       .  A
C2881      C2886   1.405       .  A
C2883      C2884   1.405       .  A
C2883      C2890   1.507       .  S
C2884      H2889   1.084       .  S
C2884      C2885   1.406       .  A
C2886      C2887   1.506       .  S
C2887      H2891   1.111       .  S
C2887      H2892   1.109       .  S
C2887      H2893   1.110       .  S
C2890      H2894   1.110       .  S
C2890      H2895   1.110       .  S
C2890      H2896   1.111       .  S
C2897      H2904   1.084       .  S
C2897      C2898   1.408       .  A
C2897      C2902   1.404       .  A
C2898      C2899   1.415       .  A
C2899      C2900   1.403       .  A
C2899      C2906   1.508       .  S
C2900      H2905   1.084       .  S
C2900      C2901   1.402       .  A
C2901      C2902   1.406       .  A
C2902      C2903   1.506       .  S
C2903      H2907   1.111       .  S
C2903      H2908   1.110       .  S
C2903      H2909   1.110       .  S
C2906      H2910   1.110       .  S
C2906      H2911   1.109       .  S
C2906      H2912   1.111       .  S
C2913      H2920   1.084       .  S
C2913      C2914   1.405       .  A
C2913      C2918   1.404       .  A
C2914      C2915   1.413       .  A
C2915      C2916   1.404       .  A
C2915      C2922   1.507       .  S
C2916      H2921   1.084       .  S
C2916      C2917   1.403       .  A
C2917      C2918   1.412       .  A
C2918      C2919   1.508       .  S
C2919      H2923   1.111       .  S
C2919      H2924   1.109       .  S
C2919      H2925   1.111       .  S
C2922      H2926   1.109       .  S
C2922      H2927   1.110       .  S
C2922      H2928   1.111       .  S
C2929      H2936   1.083       .  S
C2929      C3526   1.404   1_445  A
C2931      C3524   1.400       .  A
C2931      C2938   1.510       .  S
C2932      H2937   1.083       .  S
C2932      C3523   1.404       .  A
C2934      C3521   1.402       .  A
C2934      C2935   1.510       .  S
C2935      H3531   1.111       .  S
C2935      H2941   1.110       .  S
C2938      H2942   1.109       .  S
C2938      H3536   1.111       .  S
H2939      C3527   1.111       .  S
H2944      C3530   1.111       .  S
C2945      H2952   1.084       .  S
C2945      C2950   1.400       .  A
C2946      C2947   1.416       .  A
C2947      C2948   1.404       .  A
C2947      C2954   1.508       .  S
C2948      H2953   1.084       .  S
C2949      C2950   1.413       .  A
C2950      C2951   1.508       .  S
C2951      H2955   1.111       .  S
C2951      H2957   1.109       .  S
C2954      H2958   1.109       .  S
C2954      H2960   1.111       .  S
O2961     Ni2967   1.937       .  S
O2961      C2982   1.273       .  A
O2962     Ni2985   1.893       .  S
O2962      C3267   1.266       .  A
O2963     Ni2967   1.920       .  S
O2963     Ni2985   1.908       .  S
O2963     Ni3275   1.911       .  S
O2963      H2986   0.966       .  S
C2964      O2981   1.268       .  A
C2964      O2973   1.279       .  A
C2964      C3181   1.480       .  S
O2965     Ni2984   1.944       .  S
O2965      C2971   1.276       .  A
O2966     Ni2984   1.908       .  S
O2966      C2968   1.268       .  A
Ni2967     O2970   1.930       .  S
Ni2967     O2972   1.897       .  S
C2968      O2978   1.273       .  A
C2968      C3213   1.475       .  S
O2969     Ni2985   1.895       .  S
O2969      C2975   1.267       .  A
O2970      C2975   1.275       .  A
C2971      O3258   1.265   1_554  A
C2971      C3242   1.487       .  S
O2972      C2974   1.270       .  A
O2973     Ni2984   1.956       .  S
C2974      O2980   1.270       .  A
C2974      C3165   1.476       .  S
C2975      C3194   1.479       .  S
H2976      O2977   0.966       .  S
O2977     Ni3281   1.905   1_554  S
O2977     Ni2979   1.898       .  S
O2977     Ni2984   1.913       .  S
O2978     Ni2979   1.943       .  S
Ni2979     O2983   1.895       .  S
Ni2979     O2981   1.897       .  S
Ni2979     O3259   1.912   1_554  S
O2980     Ni2985   1.922       .  S
C2982      O3279   1.264       .  A
C2982      C3226   1.494       .  S
O2983      C3278   1.262   1_554  A
Ni2985     O3273   1.902       .  S
O2987     Ni2993   1.942       .  S
O2987      C3008   1.272       .  A
O2988     Ni3011   1.894       .  S
O2988      C3293   1.263       .  A
O2989     Ni2993   1.912       .  S
O2989     Ni3011   1.900       .  S
O2989     Ni3301   1.897       .  S
O2989      H3012   0.966       .  S
C2990      O3007   1.268       .  A
C2990      O2999   1.275       .  A
C2990      C3146   1.471       .  S
O2991     Ni3010   1.935       .  S
O2991      C2997   1.274       .  A
O2992     Ni3010   1.891       .  S
O2992      C2994   1.269       .  A
Ni2993     O2996   1.928       .  S
Ni2993     O2998   1.893       .  S
C2994      O3004   1.273       .  A
C2994      C3117   1.489       .  S
O2995     Ni3011   1.893       .  S
O2995      C3001   1.268       .  A
O2996      C3001   1.276       .  A
C2997      O3284   1.265   1_554  A
C2997      C3229   1.499       .  S
O2998      C3000   1.269       .  A
O2999     Ni3010   1.941       .  S
C3000      O3006   1.267       .  A
C3000      C3130   1.479       .  S
C3001      C3098   1.478       .  S
H3002      O3003   0.966       .  S
O3003     Ni3307   1.909   1_554  S
O3003     Ni3005   1.908       .  S
O3003     Ni3010   1.908       .  S
O3004     Ni3005   1.943       .  S
Ni3005     O3009   1.896       .  S
Ni3005     O3007   1.894       .  S
Ni3005     O3285   1.895   1_554  S
O3006     Ni3011   1.913       .  S
C3008      O3305   1.266       .  A
C3008      C3245   1.489       .  S
O3009      C3304   1.266   1_554  A
Ni3011     O3299   1.906       .  S
O3013     Ni3019   1.943       .  S
O3013      C3034   1.273       .  A
O3014     Ni3037   1.902       .  S
O3014      C3023   1.268       .  A
O3015     Ni3019   1.929       .  S
O3015     Ni3037   1.913       .  S
O3015     Ni3031   1.916       .  S
O3015      H3038   0.966       .  S
C3016      O3033   1.268       .  A
C3016      O3025   1.276       .  A
C3016      C3210   1.479       .  S
O3017     Ni3036   1.937       .  S
O3017      C3023   1.274       .  A
O3018     Ni3036   1.903       .  S
O3018      C3020   1.267       .  A
Ni3019     O3022   1.939       .  S
Ni3019     O3024   1.898       .  S
C3020      O3030   1.275       .  A
C3020      C3178   1.475       .  S
O3021     Ni3037   1.909       .  S
O3021      C3027   1.270       .  A
O3022      C3027   1.275       .  A
C3023      C3066   1.487       .  S
O3024      C3026   1.269       .  A
O3025     Ni3036   1.947       .  S
C3026      O3032   1.275       .  A
C3026      C3197   1.472       .  S
C3027      C3162   1.481       .  S
H3028      O3029   0.966       .  S
O3029     Ni3037   1.911       .  S
O3029     Ni3031   1.902       .  S
O3029     Ni3036   1.919       .  S
O3030     Ni3031   1.944       .  S
Ni3031     O3035   1.894       .  S
Ni3031     O3033   1.901       .  S
O3032     Ni3037   1.933       .  S
C3034      O3035   1.263       .  A
C3034      C3085   1.491       .  S
O3039     Ni3045   1.929       .  S
O3039      C3060   1.270       .  A
O3040     Ni3063   1.901       .  S
O3040      C3049   1.263       .  A
O3041     Ni3045   1.925       .  S
O3041     Ni3063   1.904       .  S
O3041     Ni3057   1.902       .  S
O3041      H3064   0.966       .  S
C3042      O3059   1.266       .  A
C3042      O3051   1.269       .  A
C3042      C3114   1.472       .  S
O3043     Ni3062   1.926       .  S
O3043      C3049   1.268       .  A
O3044     Ni3062   1.889       .  S
O3044      C3046   1.271       .  A
Ni3045     O3048   1.931       .  S
Ni3045     O3050   1.899       .  S
C3046      O3056   1.278       .  A
C3046      C3149   1.491       .  S
O3047     Ni3063   1.891       .  S
O3047      C3053   1.266       .  A
O3048      C3053   1.272       .  A
C3049      C3082   1.484       .  S
O3050      C3052   1.267       .  A
O3051     Ni3062   1.930       .  S
C3052      O3058   1.270       .  A
C3052      C3101   1.460       .  S
C3053      C3133   1.464       .  S
H3054      O3055   0.966       .  S
O3055     Ni3063   1.918       .  S
O3055     Ni3057   1.915       .  S
O3055     Ni3062   1.923       .  S
O3056     Ni3057   1.952       .  S
Ni3057     O3061   1.898       .  S
Ni3057     O3059   1.899       .  S
O3058     Ni3063   1.927       .  S
C3060      O3061   1.266       .  A
C3060      C3069   1.479       .  S
C3065      H3072   1.084       .  S
C3066      C3067   1.415       .  A
C3068      H3073   1.083       .  S
C3069      C3070   1.415   1_565  A
C3071      H3075   1.111       .  S
C3074      H3080   1.111       .  S
C3081      H3088   1.084       .  S
C3081      C3082   1.403       .  A
C3081      C3086   1.407       .  A
C3082      C3083   1.416       .  A
C3083      C3084   1.404       .  A
C3083      C3090   1.509       .  S
C3084      H3089   1.084       .  S
C3084      C3085   1.406       .  A
C3085      C3086   1.420       .  A
C3086      C3087   1.508       .  S
C3087      H3091   1.111       .  S
C3087      H3092   1.110       .  S
C3087      H3093   1.111       .  S
C3090      H3094   1.111       .  S
C3090      H3095   1.110       .  S
C3090      H3096   1.111       .  S
C3097      H3104   1.084       .  S
C3097      C3098   1.407       .  A
C3097      C3102   1.404   1_655  A
C3099      C3100   1.400       .  A
C3099      C3106   1.507       .  S
C3100      H3105   1.083       .  S
C3100      C3101   1.403       .  A
C3102      C3103   1.507       .  S
C3103      H3107   1.111   1_455  S
C3103      H3108   1.110       .  S
C3103      H3109   1.110   1_455  S
C3106      H3110   1.110       .  S
C3106      H3111   1.109       .  S
C3106      H3112   1.111       .  S
C3113      H3120   1.084       .  S
C3113      C3118   1.409       .  A
C3114      C3115   1.412       .  A
C3115      C3116   1.390       .  A
C3115      C3122   1.504       .  S
C3116      H3121   1.084       .  S
C3117      C3118   1.422       .  A
C3118      C3119   1.506       .  S
C3119      H3123   1.111       .  S
C3119      H3124   1.110       .  S
C3119      H3125   1.103       .  S
C3122      H3126   1.097       .  S
C3122      H3127   1.109       .  S
C3122      H3128   1.111       .  S
C3129      H3136   1.085       .  S
C3129      C3130   1.401       .  A
C3129      C3134   1.388       .  A
C3130      C3131   1.420       .  A
C3131      C3132   1.404       .  A
C3131      C3138   1.504       .  S
C3132      H3137   1.084       .  S
C3132      C3133   1.400       .  A
C3133      C3134   1.414       .  A
C3134      C3135   1.505       .  S
C3135      H3139   1.109       .  S
C3135      H3140   1.098       .  S
C3135      H3141   1.111       .  S
C3138      H3142   1.108       .  S
C3138      H3143   1.110       .  S
C3138      H3144   1.111       .  S
C3145      H3152   1.084       .  S
C3145      C3146   1.402       .  A
C3145      C3150   1.409       .  A
C3146      C3147   1.412       .  A
C3147      C3148   1.390       .  A
C3147      C3154   1.506       .  S
C3148      H3153   1.084       .  S
C3148      C3149   1.406       .  A
C3149      C3150   1.422       .  A
C3150      C3151   1.506       .  S
C3151      H3155   1.111       .  S
C3151      H3156   1.110       .  S
C3151      H3157   1.104       .  S
C3154      H3158   1.098       .  S
C3154      H3159   1.109       .  S
C3154      H3160   1.111       .  S
C3161      H3168   1.084       .  S
C3161      C3166   1.409       .  A
C3162      C3163   1.416       .  A
C3163      C3164   1.395   1_655  A
C3163      C3170   1.505       .  S
C3164      H3169   1.085   1_455  S
C3165      C3166   1.418       .  A
C3166      C3167   1.507       .  S
C3167      H3171   1.111       .  S
C3167      H3172   1.111       .  S
C3167      H3173   1.110       .  S
C3170      H3174   1.098       .  S
C3170      H3175   1.111       .  S
C3170      H3176   1.110       .  S
C3177      H3184   1.083       .  S
C3177      C3178   1.403       .  A
C3177      C3182   1.404       .  A
C3179      C3180   1.406       .  A
C3179      C3186   1.506       .  S
C3180      H3185   1.082       .  S
C3180      C3181   1.404       .  A
C3182      C3183   1.507       .  S
C3183      H3187   1.111       .  S
C3183      H3188   1.109       .  S
C3183      H3189   1.110       .  S
C3186      H3190   1.110       .  S
C3186      H3191   1.110       .  S
C3186      H3192   1.111       .  S
C3193      H3200   1.084       .  S
C3193      C3194   1.409       .  A
C3193      C3198   1.407       .  A
C3194      C3195   1.415       .  A
C3195      C3196   1.398       .  A
C3195      C3202   1.511       .  S
C3196      H3201   1.085       .  S
C3196      C3197   1.402       .  A
C3197      C3198   1.409       .  A
C3198      C3199   1.506       .  S
C3199      H3203   1.111       .  S
C3199      H3204   1.110       .  S
C3199      H3205   1.111       .  S
C3202      H3206   1.110       .  S
C3202      H3207   1.106       .  S
C3202      H3208   1.111       .  S
C3209      H3216   1.083       .  S
C3209      C3210   1.405       .  A
C3209      C3214   1.406       .  A
C3210      C3211   1.413       .  A
C3211      C3212   1.404       .  A
C3211      C3218   1.507       .  S
C3212      H3217   1.083       .  S
C3212      C3213   1.402       .  A
C3213      C3214   1.411       .  A
C3214      C3215   1.506       .  S
C3215      H3219   1.111       .  S
C3215      H3220   1.110       .  S
C3215      H3221   1.110       .  S
C3218      H3222   1.109       .  S
C3218      H3223   1.110       .  S
C3218      H3224   1.111       .  S
C3225      H3232   1.084       .  S
C3226      C3523   1.419       .  A
C3227      C3522   1.419   1_554  A
C3227      C3234   1.510       .  S
C3228      H3233   1.084       .  S
C3229      C3526   1.421   1_554  A
C3230      C3525   1.417       .  A
C3230      C3231   1.505       .  S
C3231      H3532   1.110       .  S
C3231      H3237   1.109       .  S
C3234      H3238   1.109       .  S
C3234      H3535   1.110       .  S
H3236      C3527   1.107       .  S
H3239      C3530   1.110       .  S
C3241      H3248   1.083       .  S
C3241      C3538   1.408       .  A
C3241      C3246   1.405       .  A
C3242      C3537   1.409   1_554  A
C3242      C3243   1.417       .  A
C3243      C3244   1.402       .  A
C3243      C3250   1.509       .  S
C3244      H3249   1.082       .  S
C3244      C3541   1.403   1_554  A
C3245      C3540   1.405       .  A
C3245      C3246   1.416       .  A
C3246      C3247   1.508       .  S
C3247      H3251   1.111       .  S
C3247      H3548   1.110       .  S
C3247      H3253   1.110       .  S
C3250      H3254   1.109       .  S
C3250      H3551   1.110       .  S
C3250      H3256   1.111       .  S
H3252      C3543   1.110       .  S
H3255      C3546   1.110       .  S
O3257     Ni3263   1.935       .  S
O3257      C3278   1.273       .  A
O3258     Ni3281   1.890       .  S
O3259     Ni3263   1.921       .  S
O3259     Ni3281   1.907       .  S
O3259      H3282   0.966       .  S
C3260      O3277   1.269       .  A
C3260      O3269   1.278       .  A
C3260      C3477   1.472       .  S
O3261     Ni3280   1.945       .  S
O3261      C3267   1.276       .  A
O3262     Ni3280   1.906       .  S
O3262      C3264   1.269       .  A
Ni3263     O3266   1.929       .  S
Ni3263     O3268   1.898       .  S
C3264      O3274   1.273       .  A
C3264      C3509   1.474       .  S
O3265     Ni3281   1.903       .  S
O3265      C3271   1.269       .  A
O3266      C3271   1.274       .  A
C3267      C3538   1.491       .  S
O3268      C3270   1.270       .  A
O3269     Ni3280   1.948       .  S
C3270      O3276   1.271       .  A
C3270      C3461   1.489       .  S
C3271      C3490   1.481       .  S
H3272      O3273   0.966       .  S
O3273     Ni3275   1.903       .  S
O3273     Ni3280   1.914       .  S
O3274     Ni3275   1.939       .  S
Ni3275     O3279   1.901       .  S
Ni3275     O3277   1.896       .  S
O3276     Ni3281   1.930       .  S
C3278      C3522   1.489       .  S
O3283     Ni3289   1.935       .  S
O3283      C3304   1.271       .  A
O3284     Ni3307   1.898       .  S
O3285     Ni3289   1.910       .  S
O3285     Ni3307   1.897       .  S
O3285      H3308   0.966       .  S
C3286      O3303   1.267       .  A
C3286      O3295   1.274       .  A
C3286      C3442   1.466       .  S
O3287     Ni3306   1.931       .  S
O3287      C3293   1.273       .  A
O3288     Ni3306   1.889       .  S
O3288      C3290   1.268       .  A
Ni3289     O3292   1.920       .  S
Ni3289     O3294   1.896       .  S
C3290      O3300   1.273       .  A
C3290      C3413   1.489       .  S
O3291     Ni3307   1.896       .  S
O3291      C3297   1.270       .  A
O3292      C3297   1.275       .  A
C3293      C3525   1.488       .  S
O3294      C3296   1.269       .  A
O3295     Ni3306   1.936       .  S
C3296      O3302   1.270       .  A
C3296      C3426   1.479       .  S
C3297      C3394   1.467       .  S
H3298      O3299   0.966       .  S
O3299     Ni3301   1.907       .  S
O3299     Ni3306   1.909       .  S
O3300     Ni3301   1.943       .  S
Ni3301     O3305   1.899       .  S
Ni3301     O3303   1.891       .  S
O3302     Ni3307   1.920       .  S
C3304      C3541   1.484       .  S
O3309     Ni3315   1.950       .  S
O3309      C3330   1.275       .  A
O3310     Ni3333   1.893       .  S
O3310      C3319   1.266       .  A
O3311     Ni3315   1.925       .  S
O3311     Ni3333   1.905       .  S
O3311     Ni3327   1.914       .  S
O3311      H3334   0.966       .  S
C3312      O3329   1.270       .  A
C3312      O3321   1.277       .  A
C3312      C3506   1.474       .  S
O3313     Ni3332   1.943       .  S
O3313      C3319   1.275       .  A
O3314     Ni3332   1.904       .  S
O3314      C3316   1.268       .  A
Ni3315     O3318   1.942       .  S
Ni3315     O3320   1.901       .  S
C3316      O3326   1.272       .  A
C3316      C3474   1.471       .  S
O3317     Ni3333   1.908       .  S
O3317      C3323   1.271       .  A
O3318      C3323   1.277       .  A
C3319      C3362   1.481       .  S
O3320      C3322   1.269       .  A
O3321     Ni3332   1.948       .  S
C3322      O3328   1.274       .  A
C3322      C3493   1.474       .  S
C3323      C3458   1.486       .  S
H3324      O3325   0.966       .  S
O3325     Ni3333   1.907       .  S
O3325     Ni3327   1.899       .  S
O3325     Ni3332   1.916       .  S
O3326     Ni3327   1.937       .  S
Ni3327     O3331   1.891       .  S
Ni3327     O3329   1.901       .  S
O3328     Ni3333   1.930       .  S
C3330      O3331   1.264       .  A
C3330      C3381   1.495       .  S
O3335     Ni3341   1.935       .  S
O3335      C3356   1.272       .  A
O3336     Ni3359   1.901       .  S
O3336      C3345   1.264       .  A
O3337     Ni3341   1.922       .  S
O3337     Ni3359   1.904       .  S
O3337     Ni3353   1.905       .  S
O3337      H3360   0.966       .  S
C3338      O3355   1.266       .  A
C3338      O3347   1.268       .  A
C3338      C3410   1.471       .  S
O3339     Ni3358   1.923       .  S
O3339      C3345   1.268       .  A
O3340     Ni3358   1.890       .  S
O3340      C3342   1.272       .  A
Ni3341     O3344   1.942       .  S
Ni3341     O3346   1.897       .  S
C3342      O3352   1.275       .  A
C3342      C3445   1.483       .  S
O3343     Ni3359   1.895       .  S
O3343      C3349   1.266       .  A
O3344      C3349   1.274       .  A
C3345      C3378   1.485       .  S
O3346      C3348   1.267       .  A
O3347     Ni3358   1.928       .  S
C3348      O3354   1.269       .  A
C3348      C3397   1.451       .  S
C3349      C3429   1.469       .  S
H3350      O3351   0.966       .  S
O3351     Ni3359   1.921       .  S
O3351     Ni3353   1.913       .  S
O3351     Ni3358   1.921       .  S
O3352     Ni3353   1.940       .  S
Ni3353     O3357   1.898       .  S
Ni3353     O3355   1.903       .  S
O3354     Ni3359   1.921       .  S
C3356      O3357   1.266       .  A
C3356      C3365   1.486       .  S
C3361      H3368   1.084       .  S
C3362      C3363   1.412       .  A
C3364      H3369   1.084       .  S
C3365      C3366   1.417   1_565  A
C3367      H3371   1.111       .  S
C3370      H3376   1.111       .  S
C3377      H3384   1.083       .  S
C3377      C3378   1.404       .  A
C3377      C3382   1.408       .  A
C3378      C3379   1.416       .  A
C3379      C3380   1.403       .  A
C3379      C3386   1.510       .  S
C3380      H3385   1.084       .  S
C3380      C3381   1.408       .  A
C3381      C3382   1.421       .  A
C3382      C3383   1.508       .  S
C3383      H3387   1.111       .  S
C3383      H3388   1.110       .  S
C3383      H3389   1.110       .  S
C3386      H3390   1.111       .  S
C3386      H3391   1.110       .  S
C3386      H3392   1.111       .  S
C3393      H3400   1.084       .  S
C3393      C3394   1.406       .  A
C3393      C3398   1.402   1_655  A
C3395      C3396   1.396       .  A
C3395      C3402   1.508       .  S
C3396      H3401   1.084       .  S
C3396      C3397   1.400       .  A
C3398      C3399   1.506   1_455  S
C3399      H3403   1.111       .  S
C3399      H3404   1.110   1_655  S
C3399      H3405   1.111       .  S
C3402      H3406   1.110       .  S
C3402      H3407   1.108       .  S
C3402      H3408   1.111       .  S
C3409      H3416   1.084       .  S
C3409      C3414   1.410       .  A
C3410      C3411   1.411       .  A
C3411      C3412   1.390       .  A
C3411      C3418   1.505       .  S
C3412      H3417   1.084       .  S
C3413      C3414   1.421       .  A
C3414      C3415   1.507       .  S
C3415      H3419   1.111       .  S
C3415      H3420   1.110       .  S
C3415      H3421   1.104       .  S
C3418      H3422   1.096       .  S
C3418      H3423   1.109       .  S
C3418      H3424   1.111       .  S
C3425      H3432   1.085       .  S
C3425      C3426   1.400       .  A
C3425      C3430   1.391       .  A
C3426      C3427   1.417       .  A
C3427      C3428   1.406       .  A
C3427      C3434   1.503       .  S
C3428      H3433   1.084       .  S
C3428      C3429   1.401       .  A
C3429      C3430   1.415       .  A
C3430      C3431   1.504       .  S
C3431      H3435   1.109       .  S
C3431      H3436   1.097       .  S
C3431      H3437   1.111       .  S
C3434      H3438   1.110       .  S
C3434      H3439   1.110       .  S
C3434      H3440   1.111       .  S
C3441      H3448   1.084       .  S
C3441      C3442   1.401       .  A
C3441      C3446   1.406       .  A
C3442      C3443   1.412       .  A
C3443      C3444   1.387       .  A
C3443      C3450   1.505       .  S
C3444      H3449   1.084       .  S
C3444      C3445   1.403       .  A
C3445      C3446   1.422       .  A
C3446      C3447   1.507       .  S
C3447      H3451   1.111       .  S
C3447      H3452   1.110       .  S
C3447      H3453   1.104       .  S
C3450      H3454   1.097       .  S
C3450      H3455   1.108       .  S
C3450      H3456   1.110       .  S
C3457      H3464   1.084       .  S
C3457      C3462   1.412       .  A
C3458      C3459   1.418       .  A
C3459      C3460   1.395   1_655  A
C3459      C3466   1.509       .  S
C3460      H3465   1.085   1_455  S
C3461      C3462   1.421       .  A
C3462      C3463   1.507       .  S
C3463      H3467   1.111       .  S
C3463      H3468   1.110       .  S
C3463      H3469   1.110       .  S
C3466      H3470   1.097       .  S
C3466      H3471   1.111       .  S
C3466      H3472   1.111       .  S
C3473      H3480   1.082       .  S
C3473      C3474   1.403       .  A
C3473      C3478   1.404       .  A
C3475      C3476   1.404       .  A
C3475      C3482   1.507       .  S
C3476      H3481   1.084       .  S
C3476      C3477   1.403       .  A
C3478      C3479   1.507       .  S
C3479      H3483   1.111       .  S
C3479      H3484   1.109       .  S
C3479      H3485   1.110       .  S
C3482      H3486   1.109       .  S
C3482      H3487   1.110       .  S
C3482      H3488   1.111       .  S
C3489      H3496   1.084       .  S
C3489      C3490   1.408       .  A
C3489      C3494   1.407       .  A
C3490      C3491   1.415       .  A
C3491      C3492   1.400       .  A
C3491      C3498   1.510       .  S
C3492      H3497   1.085       .  S
C3492      C3493   1.403       .  A
C3493      C3494   1.409       .  A
C3494      C3495   1.506       .  S
C3495      H3499   1.111       .  S
C3495      H3500   1.110       .  S
C3495      H3501   1.111       .  S
C3498      H3502   1.111       .  S
C3498      H3503   1.108       .  S
C3498      H3504   1.111       .  S
C3505      H3512   1.082       .  S
C3505      C3506   1.403       .  A
C3505      C3510   1.404       .  A
C3506      C3507   1.411       .  A
C3507      C3508   1.403       .  A
C3507      C3514   1.507       .  S
C3508      H3513   1.084       .  S
C3508      C3509   1.404       .  A
C3509      C3510   1.412       .  A
C3510      C3511   1.508       .  S
C3511      H3515   1.111       .  S
C3511      H3516   1.109       .  S
C3511      H3517   1.111       .  S
C3514      H3518   1.109       .  S
C3514      H3519   1.110       .  S
C3514      H3520   1.111       .  S
C3521      H3528   1.084       .  S
C3523      C3530   1.510       .  S
C3524      H3529   1.084       .  S
C3526      C3527   1.506       .  S
C3527      H3533   1.110       .  S
C3530      H3534   1.109       .  S
C3537      H3544   1.084       .  S
C3537      C3542   1.404       .  A
C3538      C3539   1.417       .  A
C3539      C3540   1.405       .  A
C3539      C3546   1.509       .  S
C3540      H3545   1.082       .  S
C3541      C3542   1.415       .  A
C3542      C3543   1.509       .  S
C3543      H3547   1.111       .  S
C3543      H3549   1.110       .  S
C3546      H3550   1.109       .  S
C3546      H3552   1.111       .  S
