geometry optimzed in LAMMPS
_audit_creation_date              2020-12-01 
_audit_creation_method            'lammps2cif' 
_symmetry_space_group_name_H-M    'P1' 
_symmetry_Int_Tables_number       1 
_symmetry_cell_setting            triclinic 
loop_ 
_symmetry_equiv_pos_as_xyz 
  x,y,z 
_cell_length_a                    43.99655603 
_cell_length_b                    24.489491492381806 
_cell_length_c                    45.10840783135944 
_cell_angle_alpha                 90.33679683218725 
_cell_angle_beta                  89.78087413961728 
_cell_angle_gamma                 90.07730828087477 
loop_ 
_atom_site_label 
_atom_site_type_symbol 
_atom_site_fract_x 
_atom_site_fract_y 
_atom_site_fract_z 
_atom_site_charge 
In1        In  0.42924647  0.57020817  0.25573911     1.36900
C2          C  0.48320692  0.53051726  0.24281468     0.79300
O3          O  0.43670050  0.51968950  0.29587652    -0.59100
O4          O  0.40439187  0.49165614  0.26374342    -0.50100
C5          C  0.39621514  0.64182414  0.28644904     0.72000
O6          O  0.42511159  0.64274353  0.28688189    -0.44900
C7          C  0.42471525  0.61372196  0.20237858     0.76700
O8          O  0.48004491  0.57037785  0.26086312    -0.56800
O9          O  0.41037029  0.57064162  0.20944288    -0.46900
O10         O  0.45897650  0.51254633  0.23146570    -0.53200
C11         C  0.41875004  0.48223275  0.28757191     0.86900
O12         O  0.38478885  0.60425486  0.27067092    -0.55100
O13         O  0.43980532  0.63562229  0.22310348    -0.58400
C14         C  0.43349918  0.26071292  0.34000335     0.88200
C15         C  0.46832937  0.25988938  0.34291775    -0.52000
C16         C  0.48005168  0.30481350  0.35680253     0.11100
C17         C  0.45581749  0.34710643  0.36612142     0.22100
C18         C  0.42191232  0.26886480  0.37196491    -0.52700
C19         C  0.43339394  0.31448984  0.38553717     0.11200
C20         C  0.42645743  0.31434967  0.32405488    -0.52300
C21         C  0.43789029  0.35990911  0.33766318     0.11800
H22         H  0.48240260  0.22608329  0.33537729     0.16300
H23         H  0.46554293  0.38365845  0.37730951     0.02100
H24         H  0.40647024  0.24080831  0.38294105     0.16600
H25         H  0.41418550  0.31520742  0.30325022     0.16400
C26         C  0.10570919  0.76748801  0.13093451     0.88200
C27         C  0.11369842  0.74843271  0.09922707    -0.52000
C28         C  0.09840183  0.70225522  0.09063585     0.11100
C29         C  0.07647820  0.68005945  0.11417245     0.22100
C30         C  0.07085193  0.77433651  0.13076219    -0.52700
C31         C  0.05556125  0.72842833  0.12196726     0.11200
C32         C  0.11172788  0.71733645  0.15035153    -0.52300
C33         C  0.09674382  0.67132080  0.14136719     0.11800
H34         H  0.13057418  0.76836293  0.08536496     0.16300
H35         H  0.06402098  0.64279984  0.10693595     0.02100
H36         H  0.05943238  0.81222820  0.13654368     0.16600
H37         H  0.12688543  0.71855921  0.16926758     0.16400
In38       In  0.11419994  0.46112579  0.21965305     1.36900
C39         C  0.06059986  0.49889240  0.23590748     0.79300
O40         O  0.10684675  0.39745252  0.25357232    -0.59100
O41         O  0.13713701  0.46359995  0.26382110    -0.50100
C42         C  0.14257283  0.38448635  0.18850651     0.72000
O43         O  0.11409905  0.39168656  0.18655885    -0.44900
C44         C  0.12302553  0.54931923  0.18796034     0.76700
O45         O  0.06311984  0.45914825  0.21775691    -0.56800
O46         O  0.13926118  0.53927451  0.21046549    -0.46900
O47         O  0.08526260  0.51710745  0.24612105    -0.53200
C48         C  0.12393648  0.42037507  0.27243278     0.86900
O49         O  0.15623831  0.41736950  0.20555869    -0.55100
O50         O  0.10503837  0.51160854  0.18031751    -0.58400
C51         C  0.43824054  0.75836880  0.09001631     0.88200
C52         C  0.42888289  0.74922748  0.12256987    -0.52000
C53         C  0.44104881  0.70299461  0.13457568     0.11100
C54         C  0.46215594  0.67134384  0.11332961     0.22100
C55         C  0.47316156  0.75882066  0.09048499    -0.52700
C56         C  0.48571365  0.71363771  0.10277036     0.11200
C57         C  0.42975158  0.70497608  0.07376829    -0.52300
C58         C  0.44227690  0.65920014  0.08606719     0.11800
H59         H  0.41384948  0.77638108  0.13482327     0.16300
H60         H  0.47256538  0.63455624  0.12339810     0.02100
H61         H  0.48684524  0.79255008  0.08231863     0.16600
H62         H  0.41573618  0.70422578  0.05404343     0.16400
In63       In  0.43521702  0.43817560  0.01119293     1.36900
C64         C  0.49065397  0.46951825  0.99627008     0.79300
O65         O  0.43752734  0.36917099  0.47637893    -0.59100
O66         O  0.41138105  0.43982510  0.46686771    -0.50100
C67         C  0.41257618  0.36398015  0.04823208     0.72000
O68         O  0.44076175  0.36992630  0.04390035    -0.44900
C69         C  0.42356709  0.53197319  0.03874249     0.76700
O70         O  0.48609974  0.43256342  0.01529115    -0.56800
O71         O  0.40827617  0.51638432  0.01651807    -0.46900
O72         O  0.46577896  0.48477080  0.48753891    -0.53200
C73         C  0.42291941  0.39586016  0.45734043     0.86900
O74         O  0.39596755  0.39620887  0.03366987    -0.55100
O75         O  0.44284320  0.49786205  0.04773391    -0.58400
C76         C  0.12099795  0.26812047  0.38205862     0.88200
C77         C  0.08612771  0.26334416  0.38015295    -0.52000
C78         C  0.07245928  0.30912130  0.36941550     0.11100
C79         C  0.09475631  0.35505498  0.36136498     0.22100
C80         C  0.13104965  0.28274848  0.35041797    -0.52700
C81         C  0.11740252  0.32842239  0.33971176     0.11200
C82         C  0.12694558  0.31998707  0.40062513    -0.52300
C83         C  0.11320727  0.36571664  0.38967928     0.11800
H84         H  0.07350466  0.22702984  0.38641778     0.16300
H85         H  0.08336511  0.39183192  0.35233176     0.02100
H86         H  0.14703343  0.25864202  0.33742208     0.16600
H87         H  0.14068852  0.31982471  0.42052757     0.16400
In88       In  0.11665271  0.58690065  0.46401080     1.36900
C89         C  0.05943177  0.56186069  0.47416878     0.79300
O90         O  0.11198134  0.52700162  0.42759467    -0.59100
O91         O  0.14055216  0.50540218  0.46386163    -0.50100
C92         C  0.15044410  0.65068544  0.43064674     0.72000
O93         O  0.12203389  0.64585838  0.42669189    -0.44900
C94         C  0.10718841  0.66651933  0.00869968     0.76700
O95         O  0.06685525  0.59693231  0.45486109    -0.56800
O96         O  0.11961190  0.62015943  0.00551813    -0.46900
O97         O  0.08115960  0.54192676  0.48869187    -0.53200
C98         C  0.12821955  0.49100630  0.43965476     0.86900
O99         O  0.16151814  0.62094357  0.45070054    -0.55100
O100        O  0.11134213  0.66345115  0.49012527    -0.58400
C101        C  0.36790970  0.76860243  0.33285281     0.88200
C102        C  0.37671004  0.77765455  0.36550654    -0.52000
C103        C  0.36189425  0.82017736  0.37887425     0.11100
C104        C  0.33907315  0.84923870  0.35862926     0.22100
C105        C  0.33286081  0.76138107  0.33377049    -0.52700
C106        C  0.31792343  0.80367869  0.34737887     0.11200
C107        C  0.37292296  0.82434827  0.31805234    -0.52300
C108        C  0.35778631  0.86666718  0.33143769     0.11800
H109        H  0.39327480  0.75273547  0.37699528     0.16300
H110        H  0.32669519  0.88329379  0.36968717     0.02100
H111        H  0.32068096  0.72615599  0.32531133     0.16600
H112        H  0.38677093  0.82896465  0.29827722     0.16400
In113      In  0.35521109  0.09122259  0.26002629     1.36900
C114        C  0.29899143  0.05942837  0.24775304     0.79300
O115        O  0.35066226  0.15869132  0.22689095    -0.59100
O116        O  0.37745648  0.08980206  0.21491028    -0.50100
C117        C  0.37843337  0.16434953  0.29771559     0.72000
O118        O  0.35023611  0.15931025  0.29329160    -0.44900
C119        C  0.36972260  0.99802339  0.28600600     0.76700
O120        O  0.30463911  0.09710006  0.26624665    -0.56800
O121        O  0.38419319  0.01568071  0.26371088    -0.46900
O122        O  0.32201516  0.03893762  0.23531627    -0.53200
C123        C  0.36580941  0.13455086  0.20700822     0.86900
O124        O  0.39485681  0.13165268  0.28295791    -0.55100
O125        O  0.34934918  0.02963808  0.29576590    -0.58400
C126        C  0.16696185  0.26974170  0.13380208     0.88200
C127        C  0.20178954  0.27673905  0.13146623    -0.52000
C128        C  0.21635782  0.23203511  0.12018433     0.11100
C129        C  0.19496508  0.18510506  0.11175140     0.22100
C130        C  0.15667964  0.25451802  0.10216288    -0.52700
C131        C  0.17167738  0.21043563  0.09050567     0.11200
C132        C  0.16217933  0.21728877  0.15172488    -0.52300
C133        C  0.17662407  0.17271203  0.13996769     0.11800
H134        H  0.21377154  0.31349743  0.13828261     0.16300
H135        H  0.20697037  0.14885605  0.10253795     0.02100
H136        H  0.13959714  0.27700535  0.08995561     0.16600
H137        H  0.14849442  0.21617605  0.17175691     0.16400
In138      In  0.17245550  0.95177390  0.21197575     1.36900
C139        C  0.23004507  0.97941389  0.21928864     0.79300
O140        O  0.17633028  0.00945407  0.17463263    -0.59100
O141        O  0.14716290  0.03143372  0.21068080    -0.50100
C142        C  0.13786707  0.88113648  0.18223321     0.72000
O143        O  0.16577005  0.88763029  0.17606934    -0.44900
C144        C  0.16856370  0.91246914  0.26615453     0.76700
O145        O  0.22261987  0.93970192  0.20256823    -0.56800
O146        O  0.15608986  0.95699505  0.25898966    -0.46900
O147        O  0.20817587  0.00315714  0.23202077    -0.53200
C148        C  0.15969242  0.04538022  0.18657203     0.86900
O149        O  0.12796858  0.91141863  0.20280260    -0.55100
O150        O  0.18168195  0.88710694  0.24523618    -0.58400
C151        C  0.35677647  0.26954176  0.09090278     0.88200
C152        C  0.32192633  0.27253351  0.09262728    -0.52000
C153        C  0.30884847  0.22998194  0.10715725     0.11100
C154        C  0.33180641  0.18757801  0.11848173     0.22100
C155        C  0.36701868  0.26419777  0.12343377    -0.52700
C156        C  0.35421237  0.22053568  0.13767142     0.11200
C157        C  0.36357878  0.21364772  0.07664380    -0.52300
C158        C  0.35072268  0.17053996  0.09125192     0.11800
H159        H  0.30872253  0.30593331  0.08356350     0.16300
H160        H  0.32097155  0.15284696  0.13026419     0.02100
H161        H  0.38309925  0.29170722  0.13399300     0.16600
H162        H  0.37694828  0.20916504  0.05651055     0.16400
In163      In  0.36394617  0.94635136  0.02084219     1.36900
C164        C  0.30875592  0.97694394  0.00533017     0.79300
O165        O  0.35302958  0.00503799  0.05732508    -0.59100
O166        O  0.39157023  0.02217532  0.03031094    -0.50100
C167        C  0.38439722  0.86519305  0.05459676     0.72000
O168        O  0.35653379  0.87201516  0.04921674    -0.44900
C169        C  0.36821515  0.90291183  0.45084802     0.76700
O170        O  0.31307339  0.94128877  0.02505686    -0.56800
O171        O  0.37921149  0.94749163  0.46029017    -0.46900
O172        O  0.32552683  0.98932640  0.48619588    -0.53200
C173        C  0.37376621  0.03834173  0.05061617     0.86900
O174        O  0.40171713  0.90077826  0.04334059    -0.55100
O175        O  0.35470082  0.87461868  0.47016712    -0.58400
C176        C  0.17675140  0.76174936  0.37619327     0.88200
C177        C  0.16602687  0.77636252  0.34490355    -0.52000
C178        C  0.17959933  0.82190258  0.33374072     0.11100
C179        C  0.20289001  0.84851308  0.35478975     0.22100
C180        C  0.21151557  0.75653883  0.37327672    -0.52700
C181        C  0.22527287  0.80203821  0.36212312     0.11200
C182        C  0.17138161  0.81359995  0.39487068    -0.52300
C183        C  0.18486856  0.85940982  0.38365066     0.11800
H184        H  0.14956254  0.75245700  0.33248848     0.16300
H185        H  0.21416728  0.88526463  0.34545840     0.02100
H186        H  0.22402458  0.71996812  0.37914245     0.16600
H187        H  0.15801609  0.81333261  0.41511633     0.16400
In188      In  0.17871734  0.07699324  0.46158304     1.36900
C189        C  0.23441409  0.04299918  0.46958126     0.79300
O190        O  0.19792935  0.13984027  0.49143302    -0.59100
O191        O  0.16735225  0.11760768  0.00493204    -0.50100
C192        C  0.14644247  0.15060766  0.43309629     0.72000
O193        O  0.17410581  0.14149225  0.42687915    -0.44900
C194        C  0.16655446  0.98387594  0.43404830     0.76700
O195        O  0.22829938  0.08123334  0.45162680    -0.56800
O196        O  0.15476951  0.99535301  0.45910542    -0.46900
O197        O  0.21195293  0.02293142  0.48338131    -0.53200
C198        C  0.18822342  0.14960114  0.01370197     0.86900
O199        O  0.13514350  0.12033495  0.45287847    -0.55100
O200        O  0.18179402  0.02197088  0.42244436    -0.58400
C201        C  0.18297565  0.91497434  0.39724808    -0.14700
C202        C  0.16449380  0.92906520  0.42008823    -0.29900
H203        H  0.19805193  0.94567582  0.38797278     0.14300
H204        H  0.14917939  0.89954697  0.42993196     0.14900
C205        C  0.27178990  0.98086892  0.49178748    -0.14700
C206        C  0.26558800  0.02370999  0.47427134    -0.29900
H207        H  0.25356881  0.95859531  0.50267761     0.14300
H208        H  0.28385271  0.04546630  0.46313714     0.14900
C209        C  0.35329907  0.11259140  0.08170793    -0.14700
C210        C  0.37552192  0.09356999  0.06378807    -0.29900
H211        H  0.33562753  0.08494220  0.08930905     0.14300
H212        H  0.39384310  0.12017530  0.05661402     0.14900
C213        C  0.16929725  0.89306991  0.29694780    -0.14700
C214        C  0.17427431  0.84043113  0.30316603    -0.29900
H215        H  0.16674760  0.92272698  0.31480790     0.14300
H216        H  0.17456310  0.81011397  0.28547841     0.14900
C217        C  0.19037470  0.17253890  0.04379851    -0.14700
C218        C  0.16656413  0.18911090  0.06009838    -0.29900
H219        H  0.21320300  0.17845235  0.05237631     0.14300
H220        H  0.14382190  0.18895274  0.05082093     0.14900
C221        C  0.27631616  0.22760530  0.11239405    -0.11500
C222        C  0.24906132  0.22917877  0.11620969    -0.13100
C223        C  0.15680844  0.10057411  0.17414740    -0.14700
C224        C  0.17550302  0.11676187  0.15219797    -0.29900
H225        H  0.14072502  0.12851490  0.18433081     0.14300
H226        H  0.19130921  0.08751476  0.14254595     0.14900
C227        C  0.36055590  0.20605230  0.16885327    -0.14700
C228        C  0.36738718  0.15436940  0.17620753    -0.29900
H229        H  0.35782229  0.23718341  0.18589173     0.14300
H230        H  0.37182691  0.12448501  0.15882639     0.14900
C231        C  0.26785930  0.04060610  0.24163568    -0.14700
C232        C  0.26168776  0.99752990  0.22387312    -0.29900
H233        H  0.24946486  0.06232899  0.25269552     0.14300
H234        H  0.27993113  0.97536244  0.21287329     0.14900
C235        C  0.36602648  0.83471172  0.41049014    -0.14700
C236        C  0.36930300  0.88686650  0.41928984    -0.29900
H237        H  0.36595622  0.80211708  0.42671846     0.14300
H238        H  0.37163798  0.91888728  0.40285665     0.14900
C239        C  0.28511932  0.80448188  0.35199694    -0.11500
C240        C  0.25786883  0.80451377  0.35647565    -0.13100
C241        C  0.37501454  0.94337034  0.29867240    -0.14700
C242        C  0.35712432  0.92386247  0.32052689    -0.29900
H243        H  0.39248748  0.91815329  0.28859870     0.14300
H244        H  0.34016948  0.95053691  0.33045876     0.14900
C245        C  0.16925232  0.69070344  0.41472958    -0.14700
C246        C  0.16070169  0.71252001  0.38888049    -0.29900
H247        H  0.18991485  0.70490821  0.42542483     0.14300
H248        H  0.14066774  0.69676264  0.37769008     0.14900
C249        C  0.13698996  0.21823348  0.39393220    -0.14700
C250        C  0.12875301  0.19497273  0.41959565    -0.29900
H251        H  0.15620235  0.20171533  0.38160548     0.14300
H252        H  0.10883318  0.20976667  0.43142215     0.14900
C253        C  0.13114210  0.43559279  0.42686086    -0.14700
C254        C  0.11454127  0.42121330  0.40299589    -0.29900
H255        H  0.14560382  0.40637708  0.43793959     0.14300
H256        H  0.10033279  0.45177084  0.39256571     0.14900
C257        C  0.40027987  0.32154624  0.06824420    -0.14700
C258        C  0.37034636  0.31695344  0.07384305    -0.29900
H259        H  0.41595429  0.29211785  0.07761514     0.14300
H260        H  0.35494087  0.34686039  0.06448435     0.14900
C261        C  0.02124732  0.50049712  0.49573721    -0.14700
C262        C  0.02786717  0.54428169  0.47897726    -0.29900
H263        H  0.03926154  0.47774737  0.50649159     0.14300
H264        H  0.00991990  0.56651979  0.46781772     0.14900
C265        C  0.42553511  0.80946459  0.07581045    -0.14700
C266        C  0.39565879  0.81808251  0.07184847    -0.29900
H267        H  0.44156895  0.83944595  0.06735118     0.14300
H268        H  0.37931762  0.78844222  0.08002570     0.14900
C269        C  0.43943290  0.60266546  0.07422970    -0.14700
C270        C  0.42074141  0.58704865  0.05212419    -0.29900
H271        H  0.45466116  0.57267723  0.08376772     0.14300
H272        H  0.40490412  0.61557221  0.04236055     0.14900
C273        C  0.15901611  0.33973572  0.17342882    -0.14700
C274        C  0.15044349  0.31832655  0.14724438    -0.29900
H275        H  0.17926491  0.32422169  0.18418558     0.14300
H276        H  0.13110910  0.33557862  0.13566272     0.14900
C277        C  0.12660797  0.39980765  0.30283859    -0.14700
C278        C  0.12149303  0.34712998  0.30899642    -0.29900
H279        H  0.13114625  0.42879573  0.32063244     0.14300
H280        H  0.11906848  0.31739876  0.29118228     0.14900
C281        C  0.11816742  0.83946815  0.16826256    -0.14700
C282        C  0.12361913  0.81690576  0.14152423    -0.29900
H283        H  0.09871369  0.82545334  0.18107794     0.14300
H284        H  0.14228152  0.83211579  0.12802724     0.14900
C285        C  0.10767135  0.69784884  0.03659235    -0.14700
C286        C  0.10354219  0.67247736  0.06248645    -0.29900
H287        H  0.10716359  0.74211965  0.03562900     0.14300
H288        H  0.10055829  0.62837818  0.06267892     0.14900
C289        C  0.02272554  0.72678033  0.11822445    -0.11500
C290        C  0.99547753  0.72630812  0.11408947    -0.13100
C291        C  0.10008865  0.61677786  0.15505086    -0.14700
C292        C  0.12319179  0.60263253  0.17299923    -0.29900
H293        H  0.08263820  0.58688942  0.14979780     0.14300
H294        H  0.14108290  0.63140903  0.17848097     0.14900
C295        C  0.39082100  0.20668517  0.31787190    -0.14700
C296        C  0.42069708  0.21140153  0.32375919    -0.29900
H297        H  0.37512103  0.23679529  0.32685289     0.14300
H298        H  0.43638727  0.18110008  0.31496356     0.14900
C299        C  0.42168453  0.37937827  0.42586659    -0.14700
C300        C  0.42750777  0.32799093  0.41704457    -0.29900
H301        H  0.41798777  0.41094764  0.40943552     0.14300
H302        H  0.42924290  0.29554430  0.43327234     0.14900
C303        C  0.01281451  0.31355685  0.36055533    -0.11500
C304        C  0.03995265  0.31293227  0.36481845    -0.13100
C305        C  0.38729310  0.72439894  0.31792616    -0.14700
C306        C  0.37645370  0.68133086  0.30252093    -0.29900
H307        H  0.41178242  0.73007630  0.31892420     0.14300
H308        H  0.35219139  0.67512741  0.30033036     0.14900
C309        C  0.43528969  0.68561466  0.16548562    -0.14700
C310        C  0.42552114  0.63485031  0.17173935    -0.29900
H311        H  0.43962406  0.71468435  0.18325225     0.14300
H312        H  0.41941812  0.60722904  0.15378814     0.14900
C313        C  0.00534383  0.51124227  0.23134686    -0.14700
C314        C  0.03148988  0.52394330  0.24469792    -0.29900
H315        H  0.51250146  0.47173935  0.21925341     0.14300
H316        H  0.03178101  0.55462347  0.26217909     0.15700
C317        C  0.41619716  0.42972538  0.30334250    -0.14700
C318        C  0.43542944  0.41609576  0.32537904    -0.29900
H319        H  0.39985082  0.40047124  0.29488746     0.14300
H320        H  0.45114360  0.44651446  0.33392783     0.14900
In321      In  0.42695930  0.58619040  0.76503517     1.36900
C322        C  0.48368537  0.55753741  0.75357525     0.79300
O323        O  0.43362195  0.53322496  0.80454997    -0.59100
O324        O  0.39979628  0.50970556  0.77332436    -0.50100
C325        C  0.39856945  0.66639167  0.79387875     0.72000
O326        O  0.42655765  0.65668308  0.79760037    -0.44900
C327        C  0.41755756  0.61622737  0.70957919     0.76700
O328        O  0.47749272  0.59919514  0.76926759    -0.56800
O329        O  0.40669807  0.57239728  0.71994739    -0.46900
O330        O  0.46098624  0.53187877  0.74377190    -0.53200
C331        C  0.41479785  0.49746079  0.79621834     0.86900
O332        O  0.38523602  0.63414056  0.77631079    -0.55100
O333        O  0.43205403  0.64532504  0.72792600    -0.58400
C334        C  0.43416645  0.26969744  0.83851424     0.88200
C335        C  0.46912014  0.27019593  0.83922061    -0.52000
C336        C  0.48119907  0.31392273  0.85381748     0.11100
C337        C  0.45716533  0.35376528  0.86623563     0.22100
C338        C  0.42456320  0.27360693  0.87134168    -0.52700
C339        C  0.43633535  0.31817856  0.88570690     0.11200
C340        C  0.42537174  0.32491982  0.82499570    -0.52300
C341        C  0.43723715  0.36916582  0.83959385     0.11800
H342        H  0.48311421  0.23821451  0.82947289     0.16300
H343        H  0.46714402  0.38936039  0.87811741     0.02100
H344        H  0.40985565  0.24408106  0.88213343     0.16600
H345        H  0.41166312  0.32801784  0.80513541     0.16400
C346        C  0.11636223  0.74745912  0.63476907     0.88200
C347        C  0.12493732  0.72795427  0.60324629    -0.52000
C348        C  0.10796680  0.68428472  0.59366634     0.11100
C349        C  0.08399421  0.66517850  0.61602145     0.22100
C350        C  0.08197729  0.75932230  0.63324549    -0.52700
C351        C  0.06511961  0.71605725  0.62352623     0.11200
C352        C  0.11926576  0.69600100  0.65393812    -0.52300
C353        C  0.10249392  0.65283365  0.64382103     0.11800
H354        H  0.14347943  0.74535478  0.59043340     0.16300
H355        H  0.07014539  0.63008321  0.60803750     0.02100
H356        H  0.07195901  0.79838662  0.63924612     0.16600
H357        H  0.13356645  0.69410473  0.67346330     0.16400
In358      In  0.10866130  0.43382465  0.71604203     1.36900
C359        C  0.05580801  0.47476437  0.73203114     0.79300
O360        O  0.10441836  0.37455486  0.75308769    -0.59100
O361        O  0.13682680  0.43870371  0.75742868    -0.50100
C362        C  0.12466085  0.35519761  0.67824374     0.72000
O363        O  0.09737677  0.36355072  0.68568178    -0.44900
C364        C  0.12157132  0.52331385  0.68679283     0.76700
O365        O  0.05774371  0.43262352  0.71577867    -0.56800
O366        O  0.13898757  0.50591135  0.70689265    -0.46900
O367        O  0.08073501  0.49401816  0.74089378    -0.53200
C368        C  0.12343474  0.39880403  0.76935997     0.86900
O369        O  0.14367073  0.38720001  0.69013294    -0.55100
O370        O  0.09971314  0.49222421  0.68021595    -0.58400
C371        C  0.41479684  0.75001312  0.59247828     0.88200
C372        C  0.40547302  0.73911619  0.62480277    -0.52000
C373        C  0.42080772  0.69677294  0.63739869     0.11100
C374        C  0.44419885  0.66949991  0.61662252     0.22100
C375        C  0.44939511  0.75887675  0.59383835    -0.52700
C376        C  0.46475276  0.71665652  0.60631080     0.11200
C377        C  0.41053648  0.69505661  0.57634543    -0.52300
C378        C  0.42592702  0.65262142  0.58899876     0.11800
H379        H  0.38883957  0.76340755  0.63685081     0.16300
H380        H  0.45698071  0.63554470  0.62701612     0.02100
H381        H  0.46069778  0.79546999  0.58586600     0.16600
H382        H  0.39705850  0.69110946  0.55637004     0.16400
In383      In  0.43288536  0.43291545  0.51195012     1.36900
C384        C  0.48879097  0.46584513  0.50036391     0.79300
O385        O  0.44029801  0.37340349  0.97633701    -0.59100
O386        O  0.41053791  0.43979197  0.96753799    -0.50100
C387        C  0.41190801  0.35399203  0.54669530     0.72000
O388        O  0.43991916  0.36273074  0.54290157    -0.44900
C389        C  0.41643721  0.52359552  0.54039200     0.76700
O390        O  0.48335573  0.42897885  0.51914470    -0.56800
O391        O  0.40240268  0.50642819  0.51775802    -0.46900
O392        O  0.46700723  0.48906084  0.98483833    -0.53200
C393        C  0.42345216  0.39709129  0.95787062     0.86900
O394        O  0.39454420  0.38581815  0.53271798    -0.55100
O395        O  0.43730717  0.49259493  0.54927455    -0.58400
C396        C  0.11384870  0.28404882  0.89102686     0.88200
C397        C  0.07888042  0.28411326  0.88953129    -0.52000
C398        C  0.06722082  0.32724225  0.87436281     0.11100
C399        C  0.09147646  0.36651384  0.86229553     0.22100
C400        C  0.12416398  0.28651230  0.85850425    -0.52700
C401        C  0.11272896  0.33007240  0.84364184     0.11200
C402        C  0.12220284  0.33996829  0.90457741    -0.52300
C403        C  0.11026392  0.38340736  0.88956967     0.11800
H404        H  0.06467033  0.25239854  0.89907736     0.16300
H405        H  0.08171294  0.40130304  0.84980946     0.02100
H406        H  0.13861898  0.25603495  0.84804393     0.16600
H407        H  0.13527917  0.34399342  0.92481213     0.16400
In408      In  0.10164432  0.60881541  0.95929473     1.36900
C409        C  0.04669472  0.57003482  0.97084754     0.79300
O410        O  0.10143230  0.54737314  0.92296935    -0.59100
O411        O  0.13146104  0.53372892  0.95919134    -0.50100
C412        C  0.12718275  0.68111742  0.92374270     0.72000
O413        O  0.09876079  0.67294951  0.92426532    -0.44900
C414        C  0.12289649  0.64380792  0.51326879     0.76700
O415        O  0.05134720  0.60491681  0.95069567    -0.56800
O416        O  0.13229363  0.59494788  0.51107084    -0.46900
O417        O  0.06989820  0.55683056  0.98544523    -0.53200
C418        C  0.12012314  0.51570322  0.93524046     0.86900
O419        O  0.14254821  0.65050050  0.94050863    -0.55100
O420        O  0.09302191  0.68364131  0.98640399    -0.58400
C421        C  0.37478469  0.78314741  0.84775292     0.88200
C422        C  0.38508093  0.79492432  0.87963958    -0.52000
C423        C  0.37133768  0.83909809  0.89231434     0.11100
C424        C  0.34830441  0.86757934  0.87199988     0.22100
C425        C  0.33990963  0.77770101  0.85010809    -0.52700
C426        C  0.32608653  0.82216372  0.86264235     0.11200
C427        C  0.38015859  0.83674318  0.83091388    -0.52300
C428        C  0.36620582  0.88115764  0.84359140     0.11800
H429        H  0.40083967  0.76913266  0.89165874     0.16300
H430        H  0.33686061  0.90323925  0.88249942     0.02100
H431        H  0.32736087  0.74204607  0.84255757     0.16600
H432        H  0.39300856  0.83835319  0.81038179     0.16400
In433      In  0.35753441  0.09217073  0.76199027     1.36900
C434        C  0.30151563  0.05709991  0.75132580     0.79300
O435        O  0.35375686  0.15386735  0.72546212    -0.59100
O436        O  0.37844718  0.08112307  0.71661079    -0.50100
C437        C  0.37953386  0.17077538  0.79710024     0.72000
O438        O  0.35139033  0.16333642  0.79331212    -0.44900
C439        C  0.37473861  0.00474795  0.79189120     0.76700
O440        O  0.30667979  0.09860581  0.76736438    -0.56800
O441        O  0.38855228  0.02010502  0.76873869    -0.46900
O442        O  0.32485144  0.03418605  0.74095883    -0.53200
C443        C  0.36752184  0.12487153  0.70653376     0.86900
O444        O  0.39641121  0.13843660  0.78260101    -0.55100
O445        O  0.35350381  0.03578768  0.80032075    -0.58400
C446        C  0.17411749  0.25278812  0.63388402     0.88200
C447        C  0.20879429  0.25476577  0.62921190    -0.52000
C448        C  0.22054394  0.20885838  0.61658441     0.11100
C449        C  0.19669854  0.16526009  0.60936396     0.22100
C450        C  0.16081758  0.24019853  0.60294922    -0.52700
C451        C  0.17293306  0.19422480  0.59006324     0.11200
C452        C  0.16850000  0.20054021  0.65183775    -0.52300
C453        C  0.18007301  0.15451770  0.63873076     0.11800
H454        H  0.22292776  0.28919706  0.63572360     0.16300
H455        H  0.20647766  0.12778194  0.59911663     0.02100
H456        H  0.14380891  0.26528361  0.59226925     0.16600
H457        H  0.15685262  0.20057994  0.67307529     0.16400
In458      In  0.17776391  0.93952409  0.71522265     1.36900
C459        C  0.23434960  0.97204745  0.72335036     0.79300
O460        O  0.18109966  0.99400398  0.67639705    -0.59100
O461        O  0.15024194  0.01649438  0.71095177    -0.50100
C462        C  0.14679649  0.86193787  0.68676450     0.72000
O463        O  0.17440590  0.87182789  0.68077313    -0.44900
C464        C  0.17423196  0.90667084  0.77068119     0.76700
O465        O  0.22827585  0.93006053  0.70780676    -0.56800
O466        O  0.15994342  0.94814662  0.76160310    -0.46900
O467        O  0.21162251  0.99616777  0.73429629    -0.53200
C468        C  0.16323135  0.02949473  0.68691920     0.86900
O469        O  0.13536958  0.89211727  0.70661460    -0.55100
O470        O  0.18875065  0.88055556  0.75096739    -0.58400
C471        C  0.35887380  0.25178445  0.58685656     0.88200
C472        C  0.32403011  0.25106207  0.58847226    -0.52000
C473        C  0.31235343  0.20642847  0.60225410     0.11100
C474        C  0.33661473  0.16597287  0.61313465     0.22100
C475        C  0.36914776  0.24599899  0.61926552    -0.52700
C476        C  0.35774999  0.20063603  0.63297631     0.11200
C477        C  0.36744623  0.19757221  0.57170547    -0.52300
C478        C  0.35584773  0.15235096  0.58542887     0.11800
H479        H  0.30978850  0.28350775  0.57989215     0.16300
H480        H  0.32679605  0.12971093  0.62437065     0.02100
H481        H  0.38373443  0.27537739  0.63041311     0.16600
H482        H  0.38058000  0.19602309  0.55132582     0.16400
In483      In  0.36047708  0.93663144  0.50634462     1.36900
C484        C  0.30330784  0.96367261  0.49700050     0.79300
O485        O  0.35513584  0.99122639  0.54569925    -0.59100
O486        O  0.38739675  0.01430353  0.51277938    -0.50100
C487        C  0.38951006  0.86001347  0.53639330     0.72000
O488        O  0.36148998  0.86937394  0.54020287    -0.44900
C489        C  0.37865354  0.91428125  0.96633303     0.76700
O490        O  0.31022258  0.92287111  0.51273074    -0.56800
O491        O  0.39012503  0.95657036  0.97801765    -0.46900
O492        O  0.33252064  0.99529675  0.99332406    -0.53200
C493        C  0.37357308  0.02682345  0.53652542     0.86900
O494        O  0.40254925  0.89042462  0.51775936    -0.55100
O495        O  0.36177385  0.88682465  0.98332157    -0.58400
C496        C  0.18539689  0.78068224  0.88883784     0.88200
C497        C  0.17674748  0.78566414  0.85599769    -0.52000
C498        C  0.18944010  0.82980697  0.84242296     0.11100
C499        C  0.21036042  0.86397787  0.86256827     0.22100
C500        C  0.22034222  0.77936075  0.88877021    -0.52700
C501        C  0.23344139  0.82269135  0.87484150     0.11200
C502        C  0.17707153  0.83606210  0.90298815    -0.52300
C503        C  0.19018979  0.87993342  0.88922556     0.11800
H504        H  0.16180929  0.75717571  0.84460039     0.16300
H505        H  0.22118036  0.89917345  0.85119024     0.02100
H506        H  0.23356130  0.74637412  0.89825517     0.16600
H507        H  0.16277994  0.83939705  0.92255068     0.16400
In508      In  0.19105798  0.10238885  0.96084119     1.36900
C509        C  0.24476241  0.05940712  0.97066568     0.79300
O510        O  0.20904810  0.15847096  0.99513592    -0.59100
O511        O  0.16112983  0.09152914  0.50825246    -0.50100
C512        C  0.16877665  0.18166721  0.92772557     0.72000
O513        O  0.19693111  0.17193405  0.92917205    -0.44900
C514        C  0.17417025  0.01083443  0.93431907     0.76700
O515        O  0.24095193  0.09656041  0.95157133    -0.56800
O516        O  0.16236920  0.02594775  0.95871631    -0.46900
O517        O  0.22112059  0.04485520  0.98452675    -0.53200
C518        C  0.18079538  0.12866836  0.51305514     0.86900
O519        O  0.15210456  0.14999883  0.94269674    -0.55100
O520        O  0.19198176  0.04503314  0.92265432    -0.58400
C521        C  0.18792498  0.93765562  0.89942871    -0.14700
C522        C  0.16976603  0.95563169  0.92159773    -0.29900
H523        H  0.20352705  0.96617340  0.88901542     0.14300
H524        H  0.15391029  0.92838056  0.93251368     0.14900
C525        C  0.27840457  0.99698744  0.99749832    -0.14700
C526        C  0.27468528  0.03553697  0.97670892    -0.29900
H527        H  0.25898205  0.98131530  0.00974756     0.14300
H528        H  0.29412903  0.05116781  0.96447759     0.14900
C529        C  0.35842362  0.09560636  0.57372683    -0.14700
C530        C  0.37693333  0.08055451  0.55120015    -0.29900
H531        H  0.34302121  0.06563798  0.58319009     0.14300
H532        H  0.39288745  0.10925069  0.54159139     0.14900
C533        C  0.17540347  0.89178893  0.80221943    -0.14700
C534        C  0.18443364  0.84212017  0.81087176    -0.29900
H535        H  0.16979523  0.92276616  0.81869554     0.14300
H536        H  0.18803380  0.80977710  0.79464004     0.14900
C537        C  0.18616560  0.15437647  0.54211410    -0.14700
C538        C  0.16434137  0.17295949  0.56037443    -0.29900
H539        H  0.20982733  0.16012022  0.54826412     0.14300
H540        H  0.14071020  0.17299419  0.55354105     0.14900
C541        C  0.27998366  0.20074506  0.60725502    -0.11500
C542        C  0.25279554  0.20214843  0.61124494    -0.13100
C543        C  0.15979825  0.08362136  0.67328404    -0.14700
C544        C  0.17855188  0.09885646  0.65120351    -0.29900
H545        H  0.14360053  0.11204581  0.68291166     0.14300
H546        H  0.19425018  0.06916427  0.64178075     0.14900
C547        C  0.36280256  0.18921312  0.66482985    -0.14700
C548        C  0.36852486  0.13858335  0.67466701    -0.29900
H549        H  0.36109378  0.22297640  0.68048416     0.14300
H550        H  0.37224679  0.10561901  0.65885402     0.14900
C551        C  0.27064831  0.03679994  0.74531428    -0.14700
C552        C  0.26549243  0.99190493  0.72860973    -0.29900
H553        H  0.25174352  0.05915239  0.75506912     0.14300
H554        H  0.28433120  0.96937487  0.71883599     0.14900
C555        C  0.37395302  0.85111017  0.92428472    -0.14700
C556        C  0.38248216  0.90019023  0.93467729    -0.29900
H557        H  0.36764172  0.81888779  0.93960858     0.14300
H558        H  0.39026157  0.93150159  0.91946846     0.14900
C559        C  0.29341396  0.82571053  0.86695856    -0.11500
C560        C  0.26609952  0.82650168  0.87054867    -0.13100
C561        C  0.38156557  0.95285002  0.80693398    -0.14700
C562        C  0.36501092  0.93661690  0.83047809    -0.29900
H563        H  0.39877503  0.92656551  0.79725433     0.14300
H564        H  0.34841506  0.96449070  0.84001041     0.14900
C565        C  0.14101667  0.72485350  0.90578550    -0.14700
C566        C  0.17126826  0.73235194  0.90446013    -0.29900
H567        H  0.12602390  0.75294758  0.89439649     0.14300
H568        H  0.18616852  0.70366730  0.91554321     0.14900
C569        C  0.12649783  0.23594157  0.90777092    -0.14700
C570        C  0.15654631  0.22734755  0.91030064    -0.29900
H571        H  0.11065600  0.20771788  0.91812247     0.14300
H572        H  0.17248205  0.25502179  0.89968962     0.14900
C573        C  0.12632887  0.46025471  0.92347524    -0.14700
C574        C  0.11129385  0.44143320  0.89948657    -0.29900
H575        H  0.14101141  0.43372470  0.93613442     0.14300
H576        H  0.09696983  0.46943829  0.88726139     0.14900
C577        C  0.40071052  0.30910626  0.56556053    -0.14700
C578        C  0.37094184  0.30142918  0.57076927    -0.29900
H579        H  0.41714699  0.28056521  0.57447456     0.14300
H580        H  0.35470876  0.33044676  0.56190604     0.14900
C581        C  0.01243670  0.50498285  0.99603838    -0.14700
C582        C  0.01653404  0.54596850  0.97658529    -0.29900
H583        H  0.03160158  0.48892488  0.00834564     0.14300
H584        H  0.99734858  0.56188320  0.96423995     0.14900
C585        C  0.39763375  0.79640969  0.57810455    -0.14700
C586        C  0.40600042  0.81593202  0.55149587    -0.29900
H587        H  0.37837162  0.81443488  0.58968780     0.14300
H588        H  0.42617572  0.79981186  0.54062830     0.14900
C589        C  0.42735208  0.59602600  0.57690133    -0.14700
C590        C  0.41016730  0.57715770  0.55436035    -0.29900
H591        H  0.44438744  0.56936873  0.58645888     0.14300
H592        H  0.39260773  0.60232316  0.54465313     0.14900
C593        C  0.13359279  0.31016193  0.65807057    -0.14700
C594        C  0.16256646  0.30385235  0.64926718    -0.29900
H595        H  0.11665274  0.27980309  0.65196420     0.14300
H596        H  0.17909075  0.33492425  0.65540834     0.14900
C597        C  0.12750949  0.38473958  0.80071186    -0.14700
C598        C  0.11698289  0.33757026  0.81157125    -0.29900
H599        H  0.13652663  0.41572300  0.81563409     0.14300
H600        H  0.10919702  0.30536565  0.79677088     0.14900
C601        C  0.12884210  0.81760657  0.67300028    -0.14700
C602        C  0.13532698  0.79463611  0.64655564    -0.29900
H603        H  0.10891197  0.80370386  0.68512638     0.14300
H604        H  0.15445385  0.80958245  0.63360420     0.14900
C605        C  0.12361750  0.67538857  0.54101671    -0.14700
C606        C  0.11330794  0.65290888  0.56604589    -0.29900
H607        H  0.12807218  0.71899515  0.54003936     0.14300
H608        H  0.10574830  0.61062883  0.56563552     0.14900
C609        C  0.03239250  0.71817966  0.61993185    -0.11500
C610        C  0.00512257  0.71951135  0.61645121    -0.13100
C611        C  0.10231716  0.59772644  0.65677362    -0.14700
C612        C  0.12495713  0.57743562  0.67330554    -0.29900
H613        H  0.08275145  0.57231861  0.65163029     0.14300
H614        H  0.14503731  0.60152416  0.67829783     0.14900
C615        C  0.39147560  0.21457108  0.81664768    -0.14700
C616        C  0.42142516  0.22121456  0.82150444    -0.29900
H617        H  0.37542494  0.24314386  0.82647570     0.14300
H618        H  0.43731586  0.19233410  0.81165438     0.14900
C619        C  0.42131795  0.37922636  0.92664105    -0.14700
C620        C  0.43111603  0.32994298  0.91751662    -0.29900
H621        H  0.41397674  0.40896449  0.91038262     0.14300
H622        H  0.43703605  0.29881419  0.93354624     0.14900
C623        C  0.00798944  0.33406860  0.86368087    -0.11500
C624        C  0.03496987  0.33319176  0.86880496    -0.13100
C625        C  0.39089700  0.73438946  0.83398911    -0.14700
C626        C  0.38241626  0.71272473  0.80788634    -0.29900
H627        H  0.40989129  0.71633829  0.84575277     0.14300
H628        H  0.36248076  0.72862225  0.79673069     0.14900
C629        C  0.41773851  0.68279932  0.66907918    -0.14700
C630        C  0.41510472  0.63088056  0.67805318    -0.29900
H631        H  0.41827182  0.71578633  0.68527016     0.14300
H632        H  0.41230491  0.59829128  0.66182108     0.14900
C633        C  0.02522611  0.54903036  0.75341009    -0.14700
C634        C  0.02673234  0.50047265  0.73935305    -0.29900
H635        H  0.53357366  0.56413660  0.75593605     0.14300
H636        H  0.00614164  0.47965420  0.73227693     0.15700
C637        C  0.41251223  0.44344913  0.81041866    -0.14700
C638        C  0.43365205  0.42673543  0.82993515    -0.29900
H639        H  0.39536769  0.41540494  0.80223170     0.14300
H640        H  0.45030266  0.45582789  0.83817341     0.14900
In641      In  0.92222360  0.57206217  0.25686114     1.36900
C642        C  0.97613796  0.53586131  0.24022336     0.79300
O643        O  0.93197856  0.51992867  0.29560070    -0.59100
O644        O  0.89708868  0.49375276  0.26588379    -0.50100
C645        C  0.89395422  0.64684597  0.28959581     0.72000
O646        O  0.92261145  0.64113014  0.29027568    -0.44900
C647        C  0.91121566  0.61361676  0.20418963     0.76700
O648        O  0.97339517  0.57510603  0.25864847    -0.56800
O649        O  0.89944993  0.56889904  0.21247616    -0.46900
O650        O  0.95156878  0.51754315  0.22988322    -0.53200
C651        C  0.91342544  0.48294800  0.28821314     0.86900
O652        O  0.88011670  0.61350447  0.27293434    -0.55100
O653        O  0.92731718  0.63783499  0.22338671    -0.58400
C654        C  0.93348440  0.26250775  0.34181385     0.88200
C655        C  0.96833992  0.26223998  0.34338059    -0.52000
C656        C  0.98047032  0.30849754  0.35525511     0.11100
C657        C  0.95665466  0.35155174  0.36429294     0.22100
C658        C  0.92311855  0.27417781  0.37394196    -0.52700
C659        C  0.93504186  0.32138728  0.38556961     0.11200
C660        C  0.92554773  0.31440387  0.32448150    -0.52300
C661        C  0.93744797  0.36125122  0.33637934     0.11800
H662        H  0.98225015  0.22788649  0.33631043     0.16300
H663        H  0.96685876  0.38923484  0.37385692     0.02100
H664        H  0.90797425  0.24759494  0.38630122     0.16600
H665        H  0.91215260  0.31344034  0.30434577     0.16400
C666        C  0.62673034  0.75565342  0.12795058     0.88200
C667        C  0.63824903  0.73830796  0.09711327    -0.52000
C668        C  0.62408763  0.69267111  0.08639535     0.11100
C669        C  0.60044518  0.66785516  0.10767042     0.22100
C670        C  0.59193202  0.76088963  0.12462462    -0.52700
C671        C  0.57822574  0.71456302  0.11430974     0.11200
C672        C  0.63152421  0.70527574  0.14732037    -0.52300
C673        C  0.61804421  0.65902182  0.13661879     0.11800
H674        H  0.65515602  0.76087686  0.08455416     0.16300
H675        H  0.58923045  0.63034042  0.09904463     0.02100
H676        H  0.57931826  0.79766096  0.13024072     0.16600
H677        H  0.64423709  0.70699023  0.16787005     0.16400
In678      In  0.62200887  0.45880036  0.22406768     1.36900
C679        C  0.56816873  0.49797030  0.23827222     0.79300
O680        O  0.61313565  0.39522348  0.25737988    -0.59100
O681        O  0.64117624  0.46332899  0.26985941    -0.50100
C682        C  0.65204946  0.38128508  0.19529468     0.72000
O683        O  0.62367831  0.38808219  0.19177855    -0.44900
C684        C  0.63461908  0.54292042  0.19073558     0.76700
O685        O  0.57104806  0.45690636  0.22105403    -0.56800
O686        O  0.64909837  0.53409829  0.21450610    -0.46900
O687        O  0.59265978  0.51779370  0.24801071    -0.53200
C688        C  0.62790102  0.41956554  0.27753745     0.86900
O689        O  0.66468252  0.41488810  0.21271167    -0.55100
O690        O  0.61552358  0.50671990  0.18345524    -0.58400
C691        C  0.91407474  0.76525759  0.09381948     0.88200
C692        C  0.90302991  0.75031154  0.12515280    -0.52000
C693        C  0.91715404  0.70563424  0.13660999     0.11100
C694        C  0.94117182  0.68028736  0.11588164     0.22100
C695        C  0.94873468  0.77225195  0.09709169    -0.52700
C696        C  0.96293232  0.72764547  0.10853779     0.11200
C697        C  0.90985055  0.71286645  0.07527671    -0.52300
C698        C  0.92390735  0.66810534  0.08695920     0.11800
H699        H  0.88611917  0.77358908  0.13742119     0.16300
H700        H  0.95290058  0.64432466  0.12545489     0.02100
H701        H  0.96088326  0.80930318  0.09116253     0.16600
H702        H  0.89685895  0.71191864  0.05491061     0.16400
In703      In  0.92655699  0.44620756  0.01353349     1.36900
C704        C  0.98204057  0.48176388  0.00183587     0.79300
O705        O  0.93982788  0.38742432  0.47457389    -0.59100
O706        O  0.91543948  0.45889572  0.46205842    -0.50100
C707        C  0.89606986  0.37874045  0.04831843     0.72000
O708        O  0.92436219  0.38686517  0.05152044    -0.44900
C709        C  0.91148913  0.54078700  0.03768578     0.76700
O710        O  0.97706862  0.44609954  0.02158266    -0.56800
O711        O  0.90006450  0.52527935  0.01323239    -0.46900
O712        O  0.96762094  0.50571274  0.48810854    -0.53200
C713        C  0.92654041  0.41324493  0.45423772     0.86900
O714        O  0.88359807  0.40659236  0.02824450    -0.55100
O715        O  0.92833254  0.50617317  0.05013360    -0.58400
C716        C  0.62135729  0.27177805  0.38795251     0.88200
C717        C  0.58653635  0.26441698  0.38654278    -0.52000
C718        C  0.57173805  0.30848325  0.37491343     0.11100
C719        C  0.59304612  0.35542707  0.36587252     0.22100
C720        C  0.63073932  0.28506259  0.35598612    -0.52700
C721        C  0.61612710  0.32905300  0.34462854     0.11200
C722        C  0.62637646  0.32519499  0.40541753    -0.52300
C723        C  0.61159877  0.36919413  0.39374432     0.11800
H724        H  0.57484786  0.22752431  0.39348440     0.16300
H725        H  0.58093105  0.39086496  0.35618196     0.02100
H726        H  0.64743585  0.26181870  0.34339333     0.16600
H727        H  0.64050354  0.32735647  0.42504157     0.16400
In728      In  0.60895726  0.59154474  0.46437999     1.36900
C729        C  0.55483118  0.54965212  0.47030349     0.79300
O730        O  0.61128685  0.53450262  0.42652800    -0.59100
O731        O  0.63492554  0.51263037  0.46617883    -0.50100
C732        C  0.64323871  0.66413905  0.43753854     0.72000
O733        O  0.61617726  0.65485886  0.42918264    -0.44900
C734        C  0.60827723  0.63828089  0.00905472     0.76700
O735        O  0.56023526  0.58670440  0.45130849    -0.56800
O736        O  0.62895892  0.60527928  0.00095809    -0.46900
O737        O  0.57718196  0.53488273  0.48593685    -0.53200
C738        C  0.62593711  0.49854657  0.44050637     0.86900
O739        O  0.65255694  0.63510873  0.45867670    -0.55100
O740        O  0.58463937  0.65327062  0.49127024    -0.58400
C741        C  0.87051034  0.75923262  0.34643089     0.88200
C742        C  0.88187323  0.77187697  0.37798894    -0.52000
C743        C  0.86796201  0.81586148  0.39087590     0.11100
C744        C  0.84374582  0.84268767  0.37132816     0.22100
C745        C  0.83582735  0.75218350  0.35008703    -0.52700
C746        C  0.82186794  0.79604890  0.36307503     0.11200
C747        C  0.87458942  0.81302571  0.32937935    -0.52300
C748        C  0.86069503  0.85688685  0.34254944     0.11800
H749        H  0.89914279  0.74808964  0.38918962     0.16300
H750        H  0.83219051  0.87805493  0.38202909     0.02100
H751        H  0.82353223  0.71581560  0.34318166     0.16600
H752        H  0.88710536  0.81552409  0.30865479     0.16400
In753      In  0.85956471  0.07732970  0.26882673     1.36900
C754        C  0.80321384  0.04433553  0.25851396     0.79300
O755        O  0.85698067  0.14242625  0.23446383    -0.59100
O756        O  0.88101078  0.06996495  0.22328115    -0.50100
C757        C  0.88027491  0.15705785  0.30381173     0.72000
O758        O  0.85237941  0.15010753  0.29856657    -0.44900
C759        C  0.87494051  0.98640595  0.29655761     0.76700
O760        O  0.80924804  0.08126615  0.27725500    -0.56800
O761        O  0.88975819  0.00337752  0.27433644    -0.46900
O762        O  0.82582830  0.02581497  0.24456603    -0.53200
C763        C  0.87114689  0.11574859  0.21488478     0.86900
O764        O  0.89765692  0.12246495  0.29155509    -0.55100
O765        O  0.85437971  0.01821054  0.30563072    -0.58400
C766        C  0.67912752  0.26133807  0.14512789     0.88200
C767        C  0.71363119  0.27111647  0.14203621    -0.52000
C768        C  0.72932970  0.22650390  0.13222360     0.11100
C769        C  0.70916170  0.17644455  0.12607692     0.22100
C770        C  0.66912545  0.24124430  0.11422824    -0.52700
C771        C  0.68491720  0.19643912  0.10443055     0.11200
C772        C  0.67589036  0.21079188  0.16508214    -0.52300
C773        C  0.69131748  0.16603271  0.15477136     0.11800
H774        H  0.72458369  0.30984027  0.14704766     0.16300
H775        H  0.72200860  0.14032568  0.11781114     0.02100
H776        H  0.65085688  0.25976030  0.10170018     0.16600
H777        H  0.66190713  0.21048738  0.18494344     0.16400
In778      In  0.67794012  0.93771653  0.21911035     1.36900
C779        C  0.73486674  0.96320853  0.23042666     0.79300
O780        O  0.68373757  0.99927606  0.18368465    -0.59100
O781        O  0.65560204  0.02065022  0.22045516    -0.50100
C782        C  0.64920431  0.86797184  0.18383146     0.72000
O783        O  0.67754496  0.87585159  0.18170768    -0.44900
C784        C  0.66752786  0.89209626  0.27102090     0.76700
O785        O  0.72812083  0.92573042  0.21205353    -0.56800
O786        O  0.65037123  0.92900984  0.26100098    -0.46900
O787        O  0.71258086  0.98516552  0.24353225    -0.53200
C788        C  0.66872198  0.03591347  0.19691587     0.86900
O789        O  0.63590092  0.89673312  0.20310305    -0.55100
O790        O  0.68891674  0.87755499  0.25401285    -0.58400
C791        C  0.87101443  0.26820344  0.10450853     0.88200
C792        C  0.83628074  0.27473708  0.10724775    -0.52000
C793        C  0.82191539  0.22979611  0.11830638     0.11100
C794        C  0.84356961  0.18253064  0.12585625     0.22100
C795        C  0.88136356  0.25306769  0.13596185    -0.52700
C796        C  0.86710091  0.20788708  0.14704713     0.11200
C797        C  0.87575786  0.21606641  0.08599727    -0.52300
C798        C  0.86151166  0.17097768  0.09717470     0.11800
H799        H  0.82420451  0.31162055  0.10110024     0.16300
H800        H  0.83166259  0.14627226  0.13501706     0.02100
H801        H  0.89804580  0.27629744  0.14846362     0.16600
H802        H  0.88900269  0.21584324  0.06567275     0.16400
In803      In  0.86104670  0.96130353  0.01353096     1.36900
C804        C  0.80457737  0.99392498  0.00597449     0.79300
O805        O  0.85725571  0.01334497  0.05379568    -0.59100
O806        O  0.88828402  0.03818971  0.01998483    -0.50100
C807        C  0.89073565  0.88373254  0.04208464     0.72000
O808        O  0.86248604  0.89139838  0.04560904    -0.44900
C809        C  0.87763507  0.90738029  0.45885589     0.76700
O810        O  0.81074240  0.95235965  0.02145504    -0.56800
O811        O  0.88897271  0.95299883  0.46631745    -0.46900
O812        O  0.83706783  0.99955771  0.48949341    -0.53200
C813        C  0.87538667  0.04933340  0.04443244     0.86900
O814        O  0.90368736  0.91654536  0.02460497    -0.55100
O815        O  0.86404165  0.88206334  0.47933474    -0.58400
C816        C  0.67754441  0.77683439  0.38810599     0.88200
C817        C  0.67026280  0.79613872  0.35653616    -0.52000
C818        C  0.68852425  0.83790918  0.34725160     0.11100
C819        C  0.71174517  0.85702969  0.37036947     0.22100
C820        C  0.71180425  0.76316402  0.38736886    -0.52700
C821        C  0.72965201  0.80540464  0.37816118     0.11200
C822        C  0.67474993  0.82845502  0.40745155    -0.52300
C823        C  0.69243129  0.87093743  0.39798311     0.11800
H824        H  0.65332843  0.77700626  0.34242932     0.16300
H825        H  0.72637977  0.89116588  0.36257971     0.02100
H826        H  0.72096041  0.72343855  0.39306059     0.16600
H827        H  0.65954682  0.83084771  0.42637516     0.16400
In828      In  0.69102163  0.09559066  0.46859993     1.36900
C829        C  0.74671275  0.06019674  0.47426152     0.79300
O830        O  0.71215685  0.16137290  0.49528103    -0.59100
O831        O  0.66397608  0.11526299  0.01904452    -0.50100
C832        C  0.65430773  0.16352067  0.44093934     0.72000
O833        O  0.68163256  0.15622081  0.43267899    -0.44900
C834        C  0.67726244  0.00004408  0.44529326     0.76700
O835        O  0.74018005  0.09719763  0.45562544    -0.56800
O836        O  0.66736476  0.01413247  0.47071095    -0.46900
O837        O  0.72480176  0.04278630  0.48982992    -0.53200
C838        C  0.67398777  0.16343066  0.02274291     0.86900
O839        O  0.64582637  0.13498100  0.46269274    -0.55100
O840        O  0.69142201  0.03676775  0.43128266    -0.58400
C841        C  0.69247959  0.92681900  0.41104924    -0.14700
C842        C  0.67424050  0.94400700  0.43335532    -0.29900
H843        H  0.70857807  0.95545371  0.40144137     0.14300
H844        H  0.65836386  0.91651382  0.44404262     0.14900
C845        C  0.78330392  0.99710644  0.49642637    -0.14700
C846        C  0.77764770  0.03884909  0.47793888    -0.29900
H847        H  0.76486817  0.97762069  0.50850411     0.14300
H848        H  0.79600234  0.05807042  0.46564778     0.14900
C849        C  0.86183770  0.11595245  0.08316065    -0.14700
C850        C  0.87963656  0.10189161  0.05994723    -0.29900
H851        H  0.84587236  0.08628824  0.09196240     0.14300
H852        H  0.89601825  0.13027904  0.05078176     0.14900
C853        C  0.66410185  0.86920250  0.30087776    -0.14700
C854        C  0.68912313  0.85923078  0.31680905    -0.29900
H855        H  0.64160952  0.86412588  0.31048058     0.14300
H856        H  0.71128269  0.87014037  0.30781444     0.14900
C857        C  0.67268326  0.19276338  0.05118705    -0.14700
C858        C  0.67901297  0.16684867  0.07642039    -0.29900
H859        H  0.67130132  0.23705163  0.05093988     0.14300
H860        H  0.68388940  0.12335326  0.07579170     0.14900
C861        C  0.78924966  0.22776727  0.12313833    -0.11500
C862        C  0.76199778  0.22695688  0.12728795    -0.13100
C863        C  0.66820161  0.09282415  0.18640219    -0.14700
C864        C  0.68968835  0.11031176  0.16733955    -0.29900
H865        H  0.65107494  0.12042923  0.19517847     0.14300
H866        H  0.70653598  0.08141475  0.15918502     0.14900
C867        C  0.87159282  0.18856999  0.17770607    -0.14700
C868        C  0.87389729  0.13523573  0.18412486    -0.29900
H869        H  0.87179334  0.21882022  0.19542954     0.14300
H870        H  0.87585440  0.10524738  0.16641762     0.14900
C871        C  0.77217711  0.02415924  0.25362992    -0.14700
C872        C  0.76627156  0.98131812  0.23572941    -0.29900
H873        H  0.75377462  0.04493389  0.26520384     0.14300
H874        H  0.78461061  0.96034075  0.22419436     0.14900
C875        C  0.87402179  0.83398114  0.42156572    -0.14700
C876        C  0.87828019  0.88697952  0.42808968    -0.29900
H877        H  0.87384754  0.80365726  0.43903943     0.14300
H878        H  0.88053306  0.91655011  0.41033920     0.14900
C879        C  0.78940414  0.79808238  0.36907840    -0.11500
C880        C  0.76228858  0.80078189  0.37378785    -0.13100
C881        C  0.87970728  0.93208996  0.30980274    -0.14700
C882        C  0.86041416  0.91323396  0.33065692    -0.29900
H883        H  0.89772302  0.90649783  0.30099033     0.14300
H884        H  0.84299724  0.94022726  0.33949462     0.14900
C885        C  0.66277858  0.70688775  0.42492248    -0.14700
C886        C  0.65755092  0.73059773  0.39872182    -0.29900
H887        H  0.68238701  0.71955625  0.43787063     0.14300
H888        H  0.63862733  0.71697435  0.38513550     0.14900
C889        C  0.63916466  0.22425391  0.40027107    -0.14700
C890        C  0.63386665  0.20390485  0.42732062    -0.29900
H891        H  0.65789712  0.20782836  0.38720868     0.14300
H892        H  0.61455001  0.21844899  0.44015690     0.14900
C893        C  0.62991074  0.44286058  0.42846078    -0.14700
C894        C  0.61256387  0.42576657  0.40563941    -0.29900
H895        H  0.64501956  0.41511847  0.43986842     0.14300
H896        H  0.59734644  0.45468269  0.39515143     0.14900
C897        C  0.87865714  0.33745592  0.06497929    -0.14700
C898        C  0.88741928  0.31683653  0.09116279    -0.29900
H899        H  0.85807424  0.32200083  0.05464693     0.14300
H900        H  0.90728189  0.33344537  0.10225625     0.14900
C901        C  0.51952304  0.48626876  0.49435250    -0.14700
C902        C  0.52449906  0.52600630  0.47446320    -0.29900
H903        H  0.53818320  0.46960732  0.50715019     0.14300
H904        H  0.50585865  0.54250216  0.46157408     0.14900
C905        C  0.89776536  0.81410952  0.08095521    -0.14700
C906        C  0.90751500  0.83871454  0.05612406    -0.29900
H907        H  0.87749991  0.82928378  0.09207870     0.14300
H908        H  0.92855216  0.82541908  0.04569461     0.14900
C909        C  0.92361342  0.61223710  0.07398408    -0.14700
C910        C  0.90718337  0.59614366  0.05027622    -0.29900
H911        H  0.93846461  0.58288040  0.08459258     0.14300
H912        H  0.89207690  0.62409938  0.03906993     0.14900
C913        C  0.66954767  0.33619699  0.18169084    -0.14700
C914        C  0.66128838  0.31012518  0.15667688    -0.29900
H915        H  0.69031530  0.32401164  0.19281631     0.14300
H916        H  0.64134053  0.32371136  0.14468553     0.14900
C917        C  0.62800550  0.39960338  0.30814247    -0.14700
C918        C  0.62100123  0.34756613  0.31408242    -0.29900
H919        H  0.63250425  0.42830547  0.32607080     0.14300
H920        H  0.61858538  0.31787884  0.29623694     0.14900
C921        C  0.63256531  0.82623750  0.16690995    -0.14700
C922        C  0.64222087  0.80538914  0.14095384    -0.29900
H923        H  0.61185773  0.81044525  0.17692858     0.14300
H924        H  0.66222724  0.82217615  0.13012659     0.14900
C925        C  0.60533653  0.65949230  0.03925027    -0.14700
C926        C  0.62928045  0.67115359  0.05628645    -0.29900
H927        H  0.58251620  0.66836856  0.04724233     0.14300
H928        H  0.65227749  0.66797212  0.04758771     0.14900
C929        C  0.54562794  0.71010510  0.11006905    -0.11500
C930        C  0.51831856  0.70891486  0.10675395    -0.13100
C931        C  0.61898530  0.60537074  0.15150331    -0.14700
C932        C  0.63825391  0.59338931  0.17366523    -0.29900
H933        H  0.60239022  0.57520147  0.14436992     0.14300
H934        H  0.65546358  0.62219576  0.18086656     0.14900
C935        C  0.89137348  0.20339401  0.32203131    -0.14700
C936        C  0.92106887  0.21077262  0.32767540    -0.29900
H937        H  0.87504583  0.23378574  0.32949492     0.14300
H938        H  0.93716577  0.18002629  0.32009344     0.14900
C939        C  0.92580143  0.39305367  0.42331640    -0.14700
C940        C  0.92959504  0.33989650  0.41649440    -0.29900
H941        H  0.92352254  0.42284282  0.40571213     0.14300
H942        H  0.92962559  0.30951287  0.43394807     0.14900
C943        C  0.51218793  0.30921910  0.36394690    -0.11500
C944        C  0.53915624  0.30950627  0.36952782    -0.13100
C945        C  0.88676196  0.71149513  0.33168375    -0.14700
C946        C  0.87744027  0.69052364  0.30564726    -0.29900
H947        H  0.90673902  0.69444011  0.34229262     0.14300
H948        H  0.85656965  0.70549553  0.29580811     0.14900
C949        C  0.91241546  0.68709623  0.16736731    -0.14700
C950        C  0.90835558  0.63412198  0.17369557    -0.29900
H951        H  0.91385761  0.71717265  0.18509794     0.14300
H952        H  0.90488975  0.60469450  0.15589624     0.14900
C953        C  0.51257331  0.50533951  0.23508191    -0.14700
C954        C  0.53880936  0.52248664  0.24666938    -0.29900
H955        H  0.00509160  0.48056379  0.21385976     0.14300
H956        H  0.53893923  0.55632449  0.26234765     0.15700
C957        C  0.91257791  0.42965868  0.30330720    -0.14700
C958        C  0.93375375  0.41657816  0.32360154    -0.29900
H959        H  0.89588626  0.39986467  0.29602155     0.14300
H960        H  0.94980566  0.44753895  0.33093844     0.14900
In961      In  0.94137384  0.61146757  0.77308918     1.36900
C962        C  0.99567090  0.57406351  0.75987181     0.79300
O963        O  0.94977598  0.56995152  0.81589503    -0.59100
O964        O  0.91910874  0.53239540  0.78527236    -0.50100
C965        C  0.91658511  0.69242086  0.80368632     0.72000
O966        O  0.94476795  0.69064229  0.79802390    -0.44900
C967        C  0.92689770  0.63573037  0.71791614     0.76700
O968        O  0.99246740  0.61710430  0.77531542    -0.56800
O969        O  0.91508955  0.59557268  0.73123330    -0.46900
O970        O  0.97140521  0.55285423  0.75063236    -0.53200
C971        C  0.93369329  0.52900927  0.80937870     0.86900
O972        O  0.90119902  0.65298579  0.79340196    -0.55100
O973        O  0.94426751  0.66514026  0.73353073    -0.58400
C974        C  0.92939670  0.28206174  0.84286981     0.88200
C975        C  0.96398292  0.28067998  0.84704542    -0.52000
C976        C  0.97589536  0.32857902  0.85715561     0.11100
C977        C  0.95213179  0.37391782  0.86207812     0.22100
C978        C  0.91665457  0.30012010  0.87333584    -0.52700
C979        C  0.92856374  0.34878428  0.88310873     0.11200
C980        C  0.92379234  0.33065988  0.82224921    -0.52300
C981        C  0.93503644  0.37899144  0.83244212     0.11800
H982        H  0.97782860  0.24480876  0.84268945     0.16300
H983        H  0.96232962  0.41225603  0.87066968     0.02100
H984        H  0.89949338  0.27749157  0.88552434     0.16600
H985        H  0.91128282  0.32729125  0.80158332     0.16400
C986        C  0.60444781  0.76807815  0.63516298     0.88200
C987        C  0.61697292  0.75659183  0.60384982    -0.52000
C988        C  0.60411127  0.71198119  0.59058026     0.11100
C989        C  0.58007859  0.68297277  0.60974637     0.22100
C990        C  0.56969814  0.77198614  0.63141761    -0.52700
C991        C  0.55702555  0.72726580  0.61824027     0.11200
C992        C  0.60949996  0.71458361  0.65211168    -0.52300
C993        C  0.59699642  0.66982526  0.63851811     0.11800
H994        H  0.63461021  0.78090920  0.59336631     0.16300
H995        H  0.56969584  0.64650408  0.59904022     0.02100
H996        H  0.55628017  0.80664915  0.63891180     0.16600
H997        H  0.62170425  0.71274656  0.67295242     0.16400
In998      In  0.60832371  0.44972715  0.71051140     1.36900
C999        C  0.55181362  0.47681844  0.72426613     0.79300
O1000       O  0.60848294  0.38717632  0.74597619    -0.59100
O1001       O  0.63150029  0.46212316  0.75446221    -0.50100
C1002       C  0.63181967  0.37161069  0.67637331     0.72000
O1003       O  0.60359982  0.37630695  0.68086673    -0.44900
C1004       C  0.61859802  0.54105584  0.68150633     0.76700
O1005       O  0.55775309  0.43782589  0.70667552    -0.56800
O1006       O  0.63530771  0.52639288  0.70276678    -0.46900
O1007       O  0.57467432  0.50030339  0.73519031    -0.53200
C1008       C  0.62276544  0.41650221  0.76425721     0.86900
O1009       O  0.64794844  0.40810100  0.68854402    -0.55100
O1010       O  0.59887901  0.50655714  0.67357685    -0.58400
C1011       C  0.92383948  0.76144117  0.59836715     0.88200
C1012       C  0.91399678  0.75039006  0.63041554    -0.52000
C1013       C  0.92782021  0.70623181  0.64270432     0.11100
C1014       C  0.95027585  0.67686935  0.62165859     0.22100
C1015       C  0.95869350  0.76652990  0.59995088    -0.52700
C1016       C  0.97251612  0.72216886  0.61206468     0.11200
C1017       C  0.91785917  0.70790140  0.58153898    -0.52300
C1018       C  0.93171051  0.66323775  0.59356402     0.11800
H1019       H  0.89871368  0.77682618  0.64284117     0.16300
H1020       H  0.96176959  0.64114235  0.63172458     0.02100
H1021       H  0.97122590  0.80216777  0.59247306     0.16600
H1022       H  0.90454590  0.70665676  0.56137146     0.16400
In1023     In  0.93292021  0.45253233  0.50881985     1.36900
C1024       C  0.98978312  0.48197455  0.50009687     0.79300
O1025       O  0.93639804  0.37137760  0.98707409    -0.59100
O1026       O  0.90858173  0.43280566  0.96740988    -0.50100
C1027       C  0.90290390  0.37638760  0.53799236     0.72000
O1028       O  0.93096287  0.38505578  0.54208523    -0.44900
C1029       C  0.91893266  0.54088414  0.54042233     0.76700
O1030       O  0.98293254  0.44164816  0.51630219    -0.56800
O1031       O  0.90588258  0.52974162  0.51611020    -0.46900
O1032       O  0.95888058  0.49697530  0.98770846    -0.53200
C1033       C  0.92170494  0.38686511  0.96466746     0.86900
O1034       O  0.89026429  0.40742570  0.51951250    -0.55100
O1035       O  0.93748038  0.50524875  0.54911333    -0.58400
C1036       C  0.62299656  0.28111862  0.87985894     0.88200
C1037       C  0.58814735  0.27487157  0.87860364    -0.52000
C1038       C  0.57383174  0.31792150  0.86561896     0.11100
C1039       C  0.59563315  0.36282786  0.85482680     0.22100
C1040       C  0.63269645  0.29004664  0.84751783    -0.52700
C1041       C  0.61854490  0.33319659  0.83456998     0.11200
C1042       C  0.62858924  0.33624571  0.89535553    -0.52300
C1043       C  0.61433821  0.37921261  0.88211515     0.11800
H1044       H  0.57598202  0.23965143  0.88713951     0.16300
H1045       H  0.58379641  0.39745640  0.84403002     0.02100
H1046       H  0.64913679  0.26463594  0.83588949     0.16600
H1047       H  0.64230401  0.34007568  0.91518017     0.16400
In1048     In  0.60937348  0.59700922  0.95544386     1.36900
C1049       C  0.55528538  0.55410017  0.96342122     0.79300
O1050       O  0.61129840  0.54396802  0.91568745    -0.59100
O1051       O  0.63858157  0.52215657  0.95290751    -0.50100
C1052       C  0.63746555  0.67966764  0.92985906     0.72000
O1053       O  0.61046992  0.66686759  0.92290621    -0.44900
C1054       C  0.60080074  0.64599095  0.51397608     0.76700
O1055       O  0.55945647  0.59406200  0.94601651    -0.56800
O1056       O  0.62242820  0.61194427  0.51108116    -0.46900
O1057       O  0.57881178  0.53647539  0.97616370    -0.53200
C1058       C  0.62844291  0.50912851  0.92759338     0.86900
O1059       O  0.64986123  0.64904053  0.94861700    -0.55100
O1060       O  0.58907442  0.65074581  0.98953740    -0.58400
C1061       C  0.85836488  0.78737398  0.84257611     0.88200
C1062       C  0.86951096  0.79685429  0.87448864    -0.52000
C1063       C  0.85638490  0.84097108  0.88805669     0.11100
C1064       C  0.83291180  0.87067866  0.86881783     0.22100
C1065       C  0.82361493  0.78238227  0.84550797    -0.52700
C1066       C  0.81034618  0.82587608  0.85938030     0.11200
C1067       C  0.86362979  0.84182783  0.82662187    -0.52300
C1068       C  0.85049291  0.88562309  0.84051857     0.11800
H1069       H  0.88612449  0.77105245  0.88533327     0.16300
H1070       H  0.82187184  0.90601054  0.88004686     0.02100
H1071       H  0.81071959  0.74732227  0.83769143     0.16600
H1072       H  0.87613832  0.84479659  0.80591682     0.16400
In1073     In  0.85765016  0.10291213  0.76539888     1.36900
C1074       C  0.80234717  0.06927511  0.75083034     0.79300
O1075       O  0.85890919  0.16484979  0.72900167    -0.59100
O1076       O  0.88354476  0.09114861  0.72267425    -0.50100
C1077       C  0.87695663  0.18016902  0.80242668     0.72000
O1078       O  0.84953903  0.17604970  0.79455893    -0.44900
C1079       C  0.86942579  0.01390959  0.79581807     0.76700
O1080       O  0.80665401  0.11090936  0.76699076    -0.56800
O1081       O  0.88634985  0.02914786  0.77467694    -0.46900
O1082       O  0.82620747  0.04656605  0.74149799    -0.53200
C1083       C  0.87453295  0.13550034  0.71169772     0.86900
O1084       O  0.89451784  0.14461681  0.79137150    -0.55100
O1085       O  0.84827000  0.04643913  0.80256752    -0.58400
C1086       C  0.68864163  0.27070052  0.63976913     0.88200
C1087       C  0.72343257  0.27511432  0.63662307    -0.52000
C1088       C  0.73659761  0.23081888  0.62352102     0.11100
C1089       C  0.71390239  0.18599351  0.61475794     0.22100
C1090       C  0.67699000  0.25908220  0.60820221    -0.52700
C1091       C  0.69032461  0.21462147  0.59519686     0.11200
C1092       C  0.68316979  0.21705779  0.65659392    -0.52300
C1093       C  0.69610291  0.17238580  0.64318650     0.11800
H1094       H  0.73648386  0.31037933  0.64390520     0.16300
H1095       H  0.72467291  0.14981693  0.60408180     0.02100
H1096       H  0.65962776  0.28319203  0.59736019     0.16600
H1097       H  0.67010297  0.21505086  0.67700321     0.16400
In1098     In  0.68163549  0.94612573  0.70972441     1.36900
C1099       C  0.73722186  0.97926027  0.72289438     0.79300
O1100       O  0.68899287  0.00468716  0.67274966    -0.59100
O1101       O  0.65755066  0.02692447  0.70673844    -0.50100
C1102       C  0.66017276  0.86780917  0.67412225     0.72000
O1103       O  0.68800576  0.87177017  0.68050103    -0.44900
C1104       C  0.66531072  0.90851381  0.76250098     0.76700
O1105       O  0.73252170  0.93925905  0.70555318    -0.56800
O1106       O  0.64856564  0.94081646  0.74821109    -0.46900
O1107       O  0.71364645  0.00012769  0.73419349    -0.53200
C1108       C  0.67222588  0.04126141  0.68390828     0.86900
O1109       O  0.64368247  0.90495480  0.68505200    -0.55100
O1110       O  0.68944162  0.89466136  0.74936306    -0.58400
C1111       C  0.87775064  0.26581843  0.59358905     0.88200
C1112       C  0.84293210  0.27176697  0.59520980    -0.52000
C1113       C  0.82868556  0.22820493  0.60788835     0.11100
C1114       C  0.85049199  0.18287434  0.61792896     0.22100
C1115       C  0.88736153  0.25579371  0.62578846    -0.52700
C1116       C  0.87312429  0.21235085  0.63853491     0.11200
C1117       C  0.88337344  0.21142629  0.57736340    -0.52300
C1118       C  0.86915011  0.16764613  0.59009418     0.11800
H1119       H  0.83075532  0.30747955  0.58749110     0.16300
H1120       H  0.83865537  0.14781171  0.62845964     0.02100
H1121       H  0.90311710  0.28186866  0.63780400     0.16600
H1122       H  0.89691654  0.20877305  0.55728200     0.16400
In1123     In  0.87066661  0.94844449  0.51272862     1.36900
C1124       C  0.81436140  0.97788315  0.50185440     0.79300
O1125       O  0.86495991  0.00538308  0.55105937    -0.59100
O1126       O  0.89816957  0.02550761  0.51839715    -0.50100
C1127       C  0.89993595  0.87336868  0.54323186     0.72000
O1128       O  0.87191643  0.88276682  0.54728370    -0.44900
C1129       C  0.86675491  0.92617281  0.95829154     0.76700
O1130       O  0.82034000  0.93948660  0.51964510    -0.56800
O1131       O  0.87868075  0.97048151  0.96701662    -0.46900
O1132       O  0.82712553  0.01704169  0.99415158    -0.53200
C1133       C  0.88404257  0.03975022  0.54171162     0.86900
O1134       O  0.91287204  0.90337827  0.52434075    -0.55100
O1135       O  0.85324550  0.89911179  0.97812595    -0.58400
C1136       C  0.66646649  0.80023562  0.88258404     0.88200
C1137       C  0.65968500  0.82006605  0.85092580    -0.52000
C1138       C  0.67761757  0.86298944  0.84242776     0.11100
C1139       C  0.69972814  0.88276136  0.86639436     0.22100
C1140       C  0.70099583  0.78858068  0.88247318    -0.52700
C1141       C  0.71826086  0.83207830  0.87411696     0.11200
C1142       C  0.66235728  0.85104981  0.90234274    -0.52300
C1143       C  0.67970738  0.89456933  0.89374435     0.11800
H1144       H  0.64407513  0.79949252  0.83598239     0.16300
H1145       H  0.71404436  0.91785709  0.85932248     0.02100
H1146       H  0.71077140  0.74917034  0.88787930     0.16600
H1147       H  0.64710383  0.85183714  0.92126155     0.16400
In1148     In  0.68061170  0.11095226  0.97202821     1.36900
C1149       C  0.73696673  0.08041697  0.98194677     0.79300
O1150       O  0.68649157  0.18461637  0.00038250    -0.59100
O1151       O  0.67712566  0.11308236  0.51560203    -0.50100
C1152       C  0.64948500  0.17845654  0.93873780     0.72000
O1153       O  0.67777437  0.17114736  0.93494813    -0.44900
C1154       C  0.66660241  0.01844893  0.94528378     0.76700
O1155       O  0.73089346  0.11962569  0.96471513    -0.56800
O1156       O  0.65376951  0.03252051  0.96938219    -0.46900
O1157       O  0.71435137  0.05896165  0.99461734    -0.53200
C1158       C  0.69674861  0.15095026  0.51824832     0.86900
O1159       O  0.63732431  0.15021257  0.95891256    -0.55100
O1160       O  0.68466408  0.05326586  0.93455060    -0.58400
C1161       C  0.68031779  0.94887116  0.90848826    -0.14700
C1162       C  0.66217948  0.96451612  0.93115372    -0.29900
H1163       H  0.69717455  0.97740528  0.90011662     0.14300
H1164       H  0.64518609  0.93726299  0.94029524     0.14900
C1165       C  0.77351259  0.01460908  0.00212546    -0.14700
C1166       C  0.76802809  0.06019146  0.98645700    -0.29900
H1167       H  0.75493420  0.99219313  0.01233893     0.14300
H1168       H  0.78661651  0.08234183  0.97606691     0.14900
C1169       C  0.86954138  0.11099459  0.57791682    -0.14700
C1170       C  0.88812704  0.09380870  0.55589288    -0.29900
H1171       H  0.85292790  0.08276526  0.58702008     0.14300
H1172       H  0.90522991  0.12075068  0.54663146     0.14900
C1173       C  0.65826132  0.88960775  0.79269440    -0.14700
C1174       C  0.68123653  0.88159797  0.81159907    -0.29900
H1175       H  0.63479412  0.88507092  0.79984542     0.14300
H1176       H  0.70427996  0.89158359  0.80463910     0.14900
C1177       C  0.70326368  0.17881125  0.54637421    -0.14700
C1178       C  0.68165432  0.19310001  0.56581494    -0.29900
H1179       H  0.72688870  0.18823627  0.55117108     0.14300
H1180       H  0.65777054  0.18855218  0.56031714     0.14900
C1181       C  0.79612307  0.22682747  0.61301161    -0.11500
C1182       C  0.76900342  0.22761283  0.61771178    -0.13100
C1183       C  0.67165376  0.09764518  0.67254928    -0.14700
C1184       C  0.69322380  0.11520222  0.65358538    -0.29900
H1185       H  0.65480616  0.12558929  0.68148112     0.14300
H1186       H  0.70964096  0.08617082  0.64479124     0.14900
C1187       C  0.87558954  0.20053762  0.67047742    -0.14700
C1188       C  0.87954374  0.14956582  0.68034796    -0.29900
H1189       H  0.87267031  0.23408469  0.68607257     0.14300
H1190       H  0.88427302  0.11668620  0.66471410     0.14900
C1191       C  0.77184900  0.04796921  0.74404682    -0.14700
C1192       C  0.76782421  0.00073351  0.72911535    -0.29900
H1193       H  0.75233579  0.07094538  0.75209198     0.14300
H1194       H  0.78727999  0.97790249  0.72087999     0.14900
C1195       C  0.86253968  0.85658073  0.91910450    -0.14700
C1196       C  0.86680539  0.90894950  0.92698381    -0.29900
H1197       H  0.86269616  0.82471786  0.93577531     0.14300
H1198       H  0.86885518  0.94017419  0.91008262     0.14900
C1199       C  0.77801849  0.82819633  0.86552627    -0.11500
C1200       C  0.75091999  0.82949048  0.87016599    -0.13100
C1201       C  0.87267196  0.96040585  0.81010902    -0.14700
C1202       C  0.85143833  0.94222440  0.82922533    -0.29900
H1203       H  0.89129877  0.93434456  0.80308440     0.14300
H1204       H  0.83346920  0.96949184  0.83664087     0.14900
C1205       C  0.65377716  0.72759443  0.91845414    -0.14700
C1206       C  0.64755293  0.75199599  0.89261563    -0.29900
H1207       H  0.67277598  0.74235790  0.93161269     0.14300
H1208       H  0.62947866  0.73637392  0.87856852     0.14900
C1209       C  0.63952335  0.23483136  0.89476195    -0.14700
C1210       C  0.63178351  0.21869346  0.92211565    -0.29900
H1211       H  0.65862180  0.21563433  0.88347559     0.14300
H1212       H  0.61183310  0.23602786  0.93287060     0.14900
C1213       C  0.63378618  0.45512744  0.91417116    -0.14700
C1214       C  0.61509590  0.43642921  0.89284569    -0.29900
H1215       H  0.65070952  0.42891998  0.92413448     0.14300
H1216       H  0.59830356  0.46377557  0.88344870     0.14900
C1217       C  0.88603343  0.33236296  0.55277634    -0.14700
C1218       C  0.89411537  0.31332795  0.57942573    -0.29900
H1219       H  0.86619201  0.31567580  0.54167380     0.14300
H1220       H  0.91303925  0.33215864  0.59108951     0.14900
C1221       C  0.52114835  0.48949459  0.98849282    -0.14700
C1222       C  0.52510148  0.53057321  0.96913707    -0.29900
H1223       H  0.54052104  0.47160262  0.99968822     0.14300
H1224       H  0.50568624  0.54863110  0.95805450     0.14900
C1225       C  0.90796186  0.80981223  0.58469708    -0.14700
C1226       C  0.91645706  0.82931796  0.55820067    -0.29900
H1227       H  0.88898843  0.82852912  0.59642691     0.14300
H1228       H  0.93630866  0.81245140  0.54708295     0.14900
C1229       C  0.93163297  0.60761574  0.57987413    -0.14700
C1230       C  0.91418866  0.59298456  0.55652210    -0.29900
H1231       H  0.94781953  0.57845581  0.58861288     0.14300
H1232       H  0.89756137  0.62092239  0.54752686     0.14900
C1233       C  0.64471218  0.32567873  0.65908918    -0.14700
C1234       C  0.67478490  0.32036789  0.65467796    -0.29900
H1235       H  0.62934330  0.29430779  0.65090897     0.14300
H1236       H  0.68995141  0.35216974  0.66275097     0.14900
C1237       C  0.62654701  0.40028189  0.79528047    -0.14700
C1238       C  0.62336263  0.34802326  0.80337123    -0.29900
H1239       H  0.62925057  0.43207199  0.81196554     0.14300
H1240       H  0.62260720  0.31573505  0.78674482     0.14900
C1241       C  0.64787445  0.82217442  0.65618852    -0.14700
C1242       C  0.61798331  0.81764076  0.65042041    -0.29900
H1243       H  0.66335233  0.79030212  0.64882708     0.14300
H1244       H  0.60267269  0.84974680  0.65783776     0.14900
C1245       C  0.59299109  0.67284148  0.54209780    -0.14700
C1246       C  0.61380195  0.69071985  0.56136186    -0.29900
H1247       H  0.56899503  0.67880245  0.54690936     0.14300
H1248       H  0.63781607  0.68979252  0.55570902     0.14900
C1249       C  0.52459546  0.72155357  0.61366449    -0.11500
C1250       C  0.49739820  0.71790891  0.61028387    -0.13100
C1251       C  0.59874448  0.61330150  0.64976630    -0.14700
C1252       C  0.62042587  0.59582421  0.66836469    -0.29900
H1253       H  0.58135700  0.58500838  0.64217537     0.14300
H1254       H  0.63843743  0.62304934  0.67566141     0.14900
C1255       C  0.88756344  0.22482800  0.82192798    -0.14700
C1256       C  0.91678731  0.22940362  0.83017985    -0.29900
H1257       H  0.87168142  0.25735853  0.82733505     0.14300
H1258       H  0.93255685  0.19669158  0.82476588     0.14900
C1259       C  0.92150187  0.35396369  0.93717626    -0.14700
C1260       C  0.91953714  0.37768863  0.91061198    -0.29900
H1261       H  0.92770312  0.31112762  0.93853418     0.14300
H1262       H  0.91677631  0.42169490  0.90940393     0.14900
C1263       C  0.51374557  0.31952481  0.85834754    -0.11500
C1264       C  0.54107022  0.32012280  0.86179735    -0.13100
C1265       C  0.87287078  0.73931895  0.82681862    -0.14700
C1266       C  0.90284167  0.73755595  0.82088104    -0.29900
H1267       H  0.85832130  0.70615680  0.81928602     0.14300
H1268       H  0.91745880  0.77065252  0.82827971     0.14900
C1269       C  0.92614423  0.69587486  0.67486761    -0.14700
C1270       C  0.92252595  0.64573520  0.68604131    -0.29900
H1271       H  0.92868725  0.73062860  0.68975025     0.14300
H1272       H  0.91781017  0.61135154  0.67145774     0.14900
C1273       C  0.51496132  0.53970003  0.74723264    -0.14700
C1274       C  0.52062429  0.49434401  0.73111075    -0.29900
H1275       H  0.04575624  0.57006219  0.76048183     0.14300
H1276       H  0.50201325  0.47019987  0.72218906     0.15700
C1277       C  0.93412645  0.47991665  0.82787091    -0.14700
C1278       C  0.92985841  0.43026321  0.81594932    -0.29900
H1279       H  0.94135447  0.48464994  0.85067981     0.14300
H1280       H  0.92282486  0.42687261  0.79291875     0.14900
loop_ 
_geom_bond_atom_site_label_1 
_geom_bond_atom_site_label_2 
_geom_bond_distance 
_geom_bond_site_symmetry_2 
_ccdc_geom_bond_type 
In1           O3   2.224       .  S
In1           O4   2.242       .  S
In1          O12   2.228       .  S
In1           O6   2.265       .  S
In1           O8   2.248       .  S
In1           O9   2.250       .  S
In1          O10   2.209       .  S
In1          O13   2.229       .  S
C2            O8   1.275       .  A
C2           O10   1.262       .  A
C2          C953   1.472       .  S
O3           C11   1.266       .  A
O4           C11   1.271       .  A
C5           O12   1.265       .  A
C5            O6   1.272       .  A
C5          C306   1.486       .  S
C7            O9   1.270       .  A
C7           O13   1.265       .  A
C7          C310   1.479       .  S
C11         C317   1.477       .  S
C14          C15   1.539       .  S
C14          C20   1.534       .  S
C14          C18   1.539       .  S
C14         C296   1.518       .  S
C15          H22   1.087       .  S
C15          C16   1.364       .  D
C16          C17   1.543       .  S
C16         C943   1.455       .  S
C17          C21   1.543       .  S
C17          C19   1.542       .  S
C17          H23   1.111       .  S
C18          H24   1.086       .  S
C18          C19   1.368       .  D
C19         C300   1.479       .  S
C20          H25   1.085       .  S
C20          C21   1.367       .  D
C21         C318   1.491       .  S
C26          C27   1.541       .  S
C26          C32   1.537       .  S
C26          C30   1.543       .  S
C26         C282   1.519       .  S
C27          H34   1.086       .  S
C27          C28   1.370       .  D
C28          C29   1.533       .  S
C28         C286   1.477       .  S
C29          C33   1.535       .  S
C29          C31   1.539       .  S
C29          H35   1.112       .  S
C30          H36   1.086       .  S
C30          C31   1.367       .  D
C31         C289   1.456       .  S
C32          H37   1.085       .  S
C32          C33   1.365       .  D
C33         C291   1.482       .  S
In38         O40   2.214       .  S
In38         O41   2.237       .  S
In38         O49   2.227       .  S
In38         O43   2.256       .  S
In38         O45   2.250       .  S
In38         O46   2.247       .  S
In38         O47   2.214       .  S
In38         O50   2.207       .  S
C39          O45   1.273       .  A
C39          O47   1.260       .  A
C39         C314   1.473       .  S
O40          C48   1.266       .  A
O41          C48   1.269       .  A
C42          O49   1.264       .  A
C42          O43   1.269       .  A
C42         C273   1.475       .  S
C44          O46   1.269       .  A
C44          O50   1.263       .  A
C44         C292   1.473       .  S
C48         C277   1.469       .  S
C51          C52   1.541       .  S
C51          C57   1.541       .  S
C51          C55   1.537       .  S
C51         C265   1.518       .  S
C52          H59   1.086       .  S
C52          C53   1.368       .  D
C53          C54   1.539       .  S
C53         C309   1.481       .  S
C54          C58   1.539       .  S
C54          C56   1.540       .  S
C54          H60   1.111       .  S
C55          H61   1.087       .  S
C55          C56   1.359       .  D
C56         C930   1.451       .  S
C57          H62   1.085       .  S
C57          C58   1.371       .  D
C58         C269   1.486       .  S
In63         O74   2.250       .  S
In63         O68   2.250       .  S
In63         O70   2.251       .  S
In63         O71   2.265       .  S
In63         O75   2.223       .  S
In63        O385   2.238   1_554  S
In63        O386   2.253   1_554  S
In63        O392   2.219   1_554  S
C64          O70   1.266   1_556  A
C64         O392   1.259       .  A
C64        C1221   1.469       .  S
O65        In383   2.241       .  S
O65          C73   1.261       .  A
O66        In383   2.254       .  S
O66          C73   1.263       .  A
C67          O74   1.265       .  A
C67          O68   1.263       .  A
C67         C257   1.481       .  S
C69          O71   1.266       .  A
C69          O75   1.261       .  A
C69         C270   1.480       .  S
O72        In383   2.218       .  S
O72         C384   1.258       .  A
C73         C299   1.475       .  S
C76          C77   1.541       .  S
C76          C82   1.540       .  S
C76          C80   1.537       .  S
C76         C249   1.512       .  S
C77          H84   1.086       .  S
C77          C78   1.365       .  D
C78          C79   1.536       .  S
C78         C304   1.449       .  S
C79          C83   1.537       .  S
C79          C81   1.536       .  S
C79          H85   1.112       .  S
C80          H86   1.087       .  S
C80          C81   1.362       .  D
C81         C278   1.472       .  S
C82          H87   1.084       .  S
C82          C83   1.369       .  D
C83         C254   1.484       .  S
In88         O90   2.206       .  S
In88         O91   2.257       .  S
In88         O99   2.224       .  S
In88         O93   2.236       .  S
In88         O95   2.245       .  S
In88         O97   2.211       .  S
In88        O100   2.220       .  S
In88        O416   2.242       .  S
C89          O95   1.268       .  A
C89          O97   1.261       .  A
C89         C262   1.469       .  S
O90          C98   1.262       .  A
O91          C98   1.269       .  A
C92          O99   1.264       .  A
C92          O93   1.269       .  A
C92         C245   1.470       .  S
C94          O96   1.268       .  A
C94         O420   1.259   1_554  A
C94         C285   1.470       .  S
O96        In408   2.248   1_554  S
C98         C253   1.477       .  S
O100        C414   1.261       .  A
C101        C102   1.539       .  S
C101        C107   1.538       .  S
C101        C105   1.552       .  S
C101        C305   1.530       .  S
C102        H109   1.086       .  S
C102        C103   1.365       .  D
C103        C104   1.538       .  S
C103        C235   1.480       .  S
C104        C108   1.537       .  S
C104        C106   1.537       .  S
C104        H110   1.111       .  S
C105        H111   1.083       .  S
C105        C106   1.369       .  D
C106        C239   1.458       .  S
C107        H112   1.085       .  S
C107        C108   1.369       .  D
C108        C242   1.488       .  S
In113       O115   2.244       .  S
In113       O116   2.255       .  S
In113       O124   2.256       .  S
In113       O118   2.247       .  S
In113       O120   2.246       .  S
In113       O121   2.256       .  S
In113       O122   2.237       .  S
In113       O125   2.228       .  S
C114        O120   1.265       .  A
C114        O122   1.260       .  A
C114        C231   1.471       .  S
O115        C123   1.260       .  A
O116        C123   1.264       .  A
C117        O124   1.264       .  A
C117        O118   1.263       .  A
C117        C295   1.480       .  S
C119        O121   1.266   1_565  A
C119        O125   1.262   1_565  A
C119        C241   1.477       .  S
C123        C228   1.476       .  S
C126        C127   1.545       .  S
C126        C132   1.536       .  S
C126        C130   1.542       .  S
C126        C274   1.517       .  S
C127        H134   1.086       .  S
C127        C128   1.364       .  D
C128        C129   1.532       .  S
C128        C222   1.451       .  S
C129        C133   1.536       .  S
C129        C131   1.539       .  S
C129        H135   1.111       .  S
C130        H136   1.086       .  S
C130        C131   1.367       .  D
C131        C218   1.483       .  S
C132        H137   1.084       .  S
C132        C133   1.367       .  D
C133        C224   1.481       .  S
In138       O140   2.211   1_565  S
In138       O141   2.248   1_565  S
In138       O149   2.230       .  S
In138       O143   2.269       .  S
In138       O145   2.265       .  S
In138       O146   2.240       .  S
In138       O147   2.205   1_565  S
In138       O150   2.227       .  S
C139        O145   1.270       .  A
C139        O147   1.260   1_565  A
C139        C232   1.476       .  S
O140        C148   1.262       .  A
O141        C148   1.266       .  A
C142        O149   1.261       .  A
C142        O143   1.268       .  A
C142        C281   1.478       .  S
C144        O146   1.266       .  A
C144        O150   1.265       .  A
C144        C213   1.471       .  S
C148        C223   1.472       .  S
C151        C152   1.537       .  S
C151        C157   1.538       .  S
C151        C155   1.543       .  S
C151        C258   1.517       .  S
C152        H159   1.087       .  S
C152        C153   1.360       .  D
C153        C154   1.540       .  S
C153        C221   1.451       .  S
C154        C158   1.537       .  S
C154        C156   1.539       .  S
C154        H160   1.111       .  S
C155        H161   1.086       .  S
C155        C156   1.370       .  D
C156        C227   1.480       .  S
C157        H162   1.085       .  S
C157        C158   1.368       .  D
C158        C209   1.485       .  S
In163       O165   2.230   1_565  S
In163       O166   2.257   1_565  S
In163       O174   2.251       .  S
In163       O168   2.254       .  S
In163       O170   2.249       .  S
In163       O491   2.260   1_554  S
In163       O492   2.219   1_554  S
In163       O495   2.229   1_554  S
C164        O170   1.265       .  A
C164        O492   1.259   1_554  A
C164        C525   1.468   1_554  S
O165        C173   1.260       .  A
O166        C173   1.265       .  A
C167        O174   1.264       .  A
C167        O168   1.262       .  A
C167        C266   1.482       .  S
C169        O171   1.266       .  A
C169        O175   1.263       .  A
C169        C236   1.475       .  S
O171       In483   2.249       .  S
O172       In483   2.210       .  S
O172        C484   1.259       .  A
C173        C210   1.476       .  S
O175       In483   2.238       .  S
C176        C177   1.534       .  S
C176        C182   1.538       .  S
C176        C180   1.540       .  S
C176        C246   1.511       .  S
C177        H184   1.086       .  S
C177        C178   1.363       .  D
C178        C179   1.541       .  S
C178        C214   1.474       .  S
C179        C183   1.544       .  S
C179        C181   1.544       .  S
C179        H185   1.111       .  S
C180        H186   1.086       .  S
C180        C181   1.365       .  D
C181        C240   1.457       .  S
C182        H187   1.084       .  S
C182        C183   1.367       .  D
C183        C201   1.492       .  S
In188       O190   2.208       .  S
In188       O199   2.230       .  S
In188       O193   2.240       .  S
In188       O195   2.228       .  S
In188       O196   2.261   1_545  S
In188       O197   2.211       .  S
In188       O200   2.218       .  S
In188       O511   2.266       .  S
C189        O195   1.271       .  A
C189        O197   1.266       .  A
C189        C206   1.468       .  S
O190        C518   1.261       .  A
O191       In508   2.271   1_554  S
O191        C198   1.269       .  A
C192        O199   1.263       .  A
C192        O193   1.268       .  A
C192        C250   1.473       .  S
C194        O196   1.272       .  A
C194        O200   1.263   1_565  A
C194        C202   1.482       .  S
C198        O510   1.258   1_554  A
C198        C217   1.470       .  S
C201        H203   1.087       .  S
C201        C202   1.353       .  D
C202        H204   1.083       .  S
C205        C484   1.470       .  S
C205        H207   1.086       .  S
C205        C206   1.346   1_565  D
C206        H208   1.087       .  S
C209        H211   1.086       .  S
C209        C210   1.348       .  D
C210        H212   1.085       .  S
C213        H215   1.087       .  S
C213        C214   1.339       .  D
C214        H216   1.087       .  S
C217        H219   1.087       .  S
C217        C218   1.340       .  D
C218        H220   1.086       .  S
C221        C222   1.211       .  T
C223        H225   1.084       .  S
C223        C224   1.346       .  D
C224        H226   1.087       .  S
C227        H229   1.086       .  S
C227        C228   1.345       .  D
C228        H230   1.087       .  S
C231        H233   1.087       .  S
C231        C232   1.349   1_545  D
C232        H234   1.086       .  S
C235        H237   1.086       .  S
C235        C236   1.343       .  D
C236        H238   1.087       .  S
C239        C240   1.215       .  T
C241        H243   1.084       .  S
C241        C242   1.348       .  D
C242        H244   1.086       .  S
C245        H247   1.087       .  S
C245        C246   1.341       .  D
C246        H248   1.087       .  S
C249        H251   1.087       .  S
C249        C250   1.342       .  D
C250        H252   1.086       .  S
C253        H255   1.084       .  S
C253        C254   1.348       .  D
C254        H256   1.086       .  S
C257        H259   1.087       .  S
C257        C258   1.345       .  D
C258        H260   1.087       .  S
C261       C1024   1.469   1_455  S
C261        H263   1.087       .  S
C261        C262   1.347       .  D
C262        H264   1.087       .  S
C265        H267   1.087       .  S
C265        C266   1.344       .  D
C266        H268   1.086       .  S
C269        H271   1.087       .  S
C269        C270   1.348       .  D
C270        H272   1.084       .  S
C273        H275   1.086       .  S
C273        C274   1.345       .  D
C274        H276   1.087       .  S
C277        H279   1.087       .  S
C277        C278   1.340       .  D
C278        H280   1.087       .  S
C281        H283   1.087       .  S
C281        C282   1.345       .  D
C282        H284   1.087       .  S
C285        H287   1.086       .  S
C285        C286   1.338       .  D
C286        H288   1.088       .  S
C289        C290   1.214   1_455  T
C290        C696   1.455       .  S
C291        H293   1.086       .  S
C291        C292   1.349       .  D
C292        H294   1.084       .  S
C295        H297   1.087       .  S
C295        C296   1.347       .  D
C296        H298   1.086       .  S
C299        H301   1.087       .  S
C299        C300   1.342       .  D
C300        H302   1.087       .  S
C303        C656   1.449   1_455  S
C303        C304   1.210       .  T
C305        H307   1.087       .  S
C305        C306   1.347       .  D
C306        H308   1.083       .  S
C309        H311   1.086       .  S
C309        C310   1.346       .  D
C310        H312   1.086       .  S
C313        C642   1.473   1_455  S
C313        H955   1.086       .  S
C313        C314   1.336       .  D
C314        H316   1.086       .  S
H315        C953   1.086       .  S
C317        H319   1.083       .  S
C317        C318   1.352       .  D
C318        H320   1.086       .  S
In321       O323   2.231       .  S
In321       O324   2.253       .  S
In321       O332   2.236       .  S
In321       O326   2.260       .  S
In321       O328   2.254       .  S
In321       O329   2.247       .  S
In321       O330   2.216       .  S
In321       O333   2.230       .  S
C322        O328   1.268       .  A
C322        O330   1.259       .  A
C322       C1273   1.471       .  S
O323        C331   1.261       .  A
O324        C331   1.265       .  A
C325        O332   1.261       .  A
C325        O326   1.266       .  A
C325        C626   1.477       .  S
C327        O329   1.266       .  A
C327        O333   1.263       .  A
C327        C630   1.473       .  S
C331        C637   1.476       .  S
C334        C335   1.538       .  S
C334        C340   1.537       .  S
C334        C338   1.541       .  S
C334        C616   1.518       .  S
C335        H342   1.087       .  S
C335        C336   1.362       .  D
C336        C337   1.541       .  S
C336       C1263   1.453       .  S
C337        C341   1.539       .  S
C337        C339   1.540       .  S
C337        H343   1.111       .  S
C338        H344   1.086       .  S
C338        C339   1.368       .  D
C339        C620   1.479       .  S
C340        H345   1.085       .  S
C340        C341   1.369       .  D
C341        C638   1.487       .  S
C346        C347   1.543       .  S
C346        C352   1.538       .  S
C346        C350   1.543       .  S
C346        C602   1.519       .  S
C347        H354   1.086       .  S
C347        C348   1.372       .  D
C348        C349   1.531       .  S
C348        C606   1.478       .  S
C349        C353   1.529       .  S
C349        C351   1.534       .  S
C349        H355   1.112       .  S
C350        H356   1.086       .  S
C350        C351   1.364       .  D
C351        C609   1.451       .  S
C352        H357   1.086       .  S
C352        C353   1.366       .  D
C353        C611   1.474       .  S
In358       O360   2.227       .  S
In358       O361   2.247       .  S
In358       O369   2.240       .  S
In358       O363   2.249       .  S
In358       O365   2.240       .  S
In358       O366   2.251       .  S
In358       O367   2.217       .  S
In358       O370   2.201       .  S
C359        O365   1.265       .  A
C359        O367   1.259       .  A
C359        C634   1.462       .  S
O360        C368   1.261       .  A
O361        C368   1.262       .  A
C362        O369   1.264       .  A
C362        O363   1.262       .  A
C362        C593   1.478       .  S
C364        O366   1.266       .  A
C364        O370   1.261       .  A
C364        C612   1.469       .  S
C368        C597   1.469       .  S
C371        C372   1.538       .  S
C371        C377   1.538       .  S
C371        C375   1.539       .  S
C371        C585   1.515       .  S
C372        H379   1.086       .  S
C372        C373   1.366       .  D
C373        C374   1.540       .  S
C373        C629   1.477       .  S
C374        C378   1.540       .  S
C374        C376   1.539       .  S
C374        H380   1.111       .  S
C375        H381   1.087       .  S
C375        C376   1.362       .  D
C376       C1250   1.448       .  S
C377        H382   1.084       .  S
C377        C378   1.370       .  D
C378        C589   1.488       .  S
In383       O394   2.247       .  S
In383       O388   2.243       .  S
In383       O390   2.248       .  S
In383       O391   2.260       .  S
In383       O395   2.232       .  S
C384        O390   1.264       .  A
C384        C901   1.466       .  S
O385        C393   1.261       .  A
O386        C393   1.265       .  A
C387        O394   1.265       .  A
C387        O388   1.262       .  A
C387        C577   1.477       .  S
C389        O391   1.265       .  A
C389        O395   1.260       .  A
C389        C590   1.478       .  S
C393        C619   1.476       .  S
C396        C397   1.540       .  S
C396        C402   1.541       .  S
C396        C400   1.535       .  S
C396        C569   1.511       .  S
C397        H404   1.086       .  S
C397        C398   1.364       .  D
C398        C399   1.536       .  S
C398        C624   1.450       .  S
C399        C403   1.539       .  S
C399        C401   1.538       .  S
C399        H405   1.112       .  S
C400        H406   1.086       .  S
C400        C401   1.361       .  D
C401        C598   1.471       .  S
C402        H407   1.085       .  S
C402        C403   1.371       .  D
C403        C574   1.488       .  S
In408       O410   2.218       .  S
In408       O411   2.260       .  S
In408       O419   2.234       .  S
In408       O413   2.239       .  S
In408       O415   2.250       .  S
In408       O417   2.228       .  S
In408       O420   2.229       .  S
C409        O415   1.267       .  A
C409        O417   1.261       .  A
C409        C582   1.474       .  S
O410        C418   1.263       .  A
O411        C418   1.268       .  A
C412        O419   1.266       .  A
C412        O413   1.266       .  A
C412        C565   1.476       .  S
C414        O416   1.270       .  A
C414        C605   1.468       .  S
C418        C573   1.480       .  S
C421        C422   1.535       .  S
C421        C427   1.538       .  S
C421        C425   1.543       .  S
C421        C625   1.518       .  S
C422        H429   1.087       .  S
C422        C423   1.362       .  D
C423        C424   1.539       .  S
C423        C555   1.475       .  S
C424        C428   1.539       .  S
C424        C426   1.538       .  S
C424        H430   1.111       .  S
C425        H431   1.086       .  S
C425        C426   1.366       .  D
C426        C559   1.453       .  S
C427        H432   1.084       .  S
C427        C428   1.371       .  D
C428        C562   1.486       .  S
In433       O435   2.249       .  S
In433       O436   2.256       .  S
In433       O444   2.251       .  S
In433       O438   2.253       .  S
In433       O440   2.255       .  S
In433       O441   2.255       .  S
In433       O442   2.230       .  S
In433       O445   2.225       .  S
C434        O440   1.265       .  A
C434        O442   1.258       .  A
C434        C551   1.471       .  S
O435        C443   1.261       .  A
O436        C443   1.263       .  A
C437        O444   1.264       .  A
C437        O438   1.263       .  A
C437        C615   1.481       .  S
C439        O441   1.265       .  A
C439        O445   1.261       .  A
C439        C561   1.476   1_545  S
C443        C548   1.479       .  S
C446        C447   1.540       .  S
C446        C452   1.538       .  S
C446        C450   1.544       .  S
C446        C594   1.514       .  S
C447        H454   1.087       .  S
C447        C448   1.359       .  D
C448        C449   1.530       .  S
C448        C542   1.448       .  S
C449        C453   1.535       .  S
C449        C451   1.540       .  S
C449        H455   1.112       .  S
C450        H456   1.085       .  S
C450        C451   1.372       .  D
C451        C538   1.484       .  S
C452        H457   1.085       .  S
C452        C453   1.368       .  D
C453        C544   1.479       .  S
In458       O460   2.212       .  S
In458       O461   2.251   1_565  S
In458       O469   2.230       .  S
In458       O463   2.271       .  S
In458       O465   2.258       .  S
In458       O466   2.240       .  S
In458       O467   2.208       .  S
In458       O470   2.226       .  S
C459        O465   1.270       .  A
C459        O467   1.260       .  A
C459        C552   1.473       .  S
O460        C468   1.262   1_565  A
O461        C468   1.266       .  A
C462        O469   1.261       .  A
C462        O463   1.267       .  A
C462        C601   1.477       .  S
C464        O466   1.266       .  A
C464        O470   1.264       .  A
C464        C533   1.472       .  S
C468        C543   1.473       .  S
C471        C472   1.535       .  S
C471        C477   1.536       .  S
C471        C475   1.539       .  S
C471        C578   1.514       .  S
C472        H479   1.087       .  S
C472        C473   1.360       .  D
C473        C474   1.541       .  S
C473        C541   1.448       .  S
C474        C478   1.542       .  S
C474        C476   1.543       .  S
C474        H480   1.111       .  S
C475        H481   1.086       .  S
C475        C476   1.368       .  D
C476        C547   1.483       .  S
C477        H482   1.084       .  S
C477        C478   1.369       .  D
C478        C529   1.488       .  S
In483       O485   2.228       .  S
In483       O486   2.257   1_565  S
In483       O494   2.234       .  S
In483       O488   2.253       .  S
In483       O490   2.254       .  S
C484        O490   1.267       .  A
O485        C493   1.261   1_565  A
O486        C493   1.266       .  A
C487        O494   1.262       .  A
C487        O488   1.265       .  A
C487        C586   1.473       .  S
C489        O491   1.265       .  A
C489        O495   1.261       .  A
C489        C556   1.476       .  S
C493        C530   1.477       .  S
C496        C497   1.536       .  S
C496        C502   1.540       .  S
C496        C500   1.538       .  S
C496        C566   1.513       .  S
C497        H504   1.086       .  S
C497        C498   1.363       .  D
C498        C499   1.539       .  S
C498        C534   1.474       .  S
C499        C503   1.541       .  S
C499        C501   1.541       .  S
C499        H505   1.111       .  S
C500        H506   1.087       .  S
C500        C501   1.362       .  D
C501        C560   1.452       .  S
C502        H507   1.084       .  S
C502        C503   1.370       .  D
C503        C521   1.487       .  S
In508       O510   2.211       .  S
In508       O519   2.235       .  S
In508       O513   2.243       .  S
In508       O515   2.238       .  S
In508       O516   2.258       .  S
In508       O517   2.216       .  S
In508       O520   2.217       .  S
C509        O515   1.268       .  A
C509        O517   1.264       .  A
C509        C526   1.468       .  S
O511        C518   1.273       .  A
C512        O519   1.263       .  A
C512        O513   1.264       .  A
C512        C570   1.474       .  S
C514        O516   1.268       .  A
C514        O520   1.262       .  A
C514        C522   1.478   1_545  S
C518        C537   1.471       .  S
C521        H523   1.086       .  S
C521        C522   1.350       .  D
C522        H524   1.084       .  S
C525        H527   1.087   1_556  S
C525        C526   1.345   1_565  D
C526        H528   1.087       .  S
C529        H531   1.086       .  S
C529        C530   1.350       .  D
C530        H532   1.084       .  S
C533        H535   1.087       .  S
C533        C534   1.341       .  D
C534        H536   1.087       .  S
C537        H539   1.087       .  S
C537        C538   1.341       .  D
C538        H540   1.086       .  S
C541        C542   1.209       .  T
C543        H545   1.085       .  S
C543        C544   1.345       .  D
C544        H546   1.087       .  S
C547        H549   1.087       .  S
C547        C548   1.344       .  D
C548        H550   1.086       .  S
C551        H553   1.087       .  S
C551        C552   1.349   1_545  D
C552        H554   1.087       .  S
C555        H557   1.087       .  S
C555        C556   1.341       .  D
C556        H558   1.086       .  S
C559        C560   1.212       .  T
C561        H563   1.083       .  S
C561        C562   1.347       .  D
C562        H564   1.086       .  S
C565        H567   1.086       .  S
C565        C566   1.344       .  D
C566        H568   1.087       .  S
C569        H571   1.087       .  S
C569        C570   1.344       .  D
C570        H572   1.086       .  S
C573        H575   1.083       .  S
C573        C574   1.349       .  D
C574        H576   1.086       .  S
C577        H579   1.086       .  S
C577        C578   1.343       .  D
C578        H580   1.087       .  S
C581        C704   1.476   1_456  S
C581        H583   1.087   1_556  S
C581        C582   1.349       .  D
C582        H584   1.087   1_455  S
C585        H587   1.087       .  S
C585        C586   1.344       .  D
C586        H588   1.086       .  S
C589        H591   1.087       .  S
C589        C590   1.348       .  D
C590        H592   1.084       .  S
C593        H595   1.087       .  S
C593        C594   1.343       .  D
C594        H596   1.087       .  S
C597        H599   1.087       .  S
C597        C598   1.339       .  D
C598        H600   1.086       .  S
C601        H603   1.087       .  S
C601        C602   1.346       .  D
C602        H604   1.087       .  S
C605        H607   1.087       .  S
C605        C606   1.336       .  D
C606        H608   1.087       .  S
C609        C610   1.211       .  T
C610       C1016   1.451   1_455  S
C611        H613   1.086       .  S
C611        C612   1.344       .  D
C612        H614   1.085       .  S
C615        H617   1.086       .  S
C615        C616   1.346       .  D
C616        H618   1.087       .  S
C619        H621   1.087       .  S
C619        C620   1.344       .  D
C620        H622   1.086       .  S
C623        C976   1.449   1_455  S
C623        C624   1.210       .  T
C625        H627   1.087       .  S
C625        C626   1.343       .  D
C626        H628   1.087       .  S
C629        H631   1.086       .  S
C629        C630   1.341       .  D
C630        H632   1.087       .  S
C633        C962   1.466   1_455  S
C633       H1275   1.087       .  S
C633        C634   1.346       .  D
C634        H636   1.087       .  S
H635       C1273   1.087       .  S
C637        H639   1.084       .  S
C637        C638   1.349       .  D
C638        H640   1.086       .  S
In641       O643   2.214       .  S
In641       O644   2.251       .  S
In641       O652   2.230       .  S
In641       O646   2.259       .  S
In641       O648   2.254       .  S
In641       O649   2.243       .  S
In641       O650   2.214       .  S
In641       O653   2.225       .  S
C642        O648   1.272       .  A
C642        O650   1.260       .  A
O643        C651   1.263       .  A
O644        C651   1.269       .  A
C645        O652   1.264       .  A
C645        O646   1.269       .  A
C645        C946   1.478       .  S
C647        O649   1.268       .  A
C647        O653   1.265       .  A
C647        C950   1.473       .  S
C651        C957   1.476       .  S
C654        C655   1.535       .  S
C654        C660   1.537       .  S
C654        C658   1.543       .  S
C654        C936   1.517       .  S
C655        H662   1.087       .  S
C655        C656   1.360       .  D
C656        C657   1.540       .  S
C657        C661   1.539       .  S
C657        C659   1.540       .  S
C657        H663   1.111       .  S
C658        H664   1.086       .  S
C658        C659   1.371       .  D
C659        C940   1.483       .  S
C660        H665   1.085       .  S
C660        C661   1.368       .  D
C661        C958   1.485       .  S
C666        C667   1.536       .  S
C666        C672   1.531       .  S
C666        C670   1.544       .  S
C666        C922   1.511       .  S
C667        H674   1.086       .  S
C667        C668   1.366       .  D
C668        C669   1.539       .  S
C668        C926   1.471       .  S
C669        C673   1.537       .  S
C669        C671   1.533       .  S
C669        H675   1.111       .  S
C670        H676   1.087       .  S
C670        C671   1.364       .  D
C671        C929   1.451       .  S
C672        H677   1.085       .  S
C672        C673   1.364       .  D
C673        C931   1.480       .  S
In678       O680   2.204       .  S
In678       O681   2.236       .  S
In678       O689   2.222       .  S
In678       O683   2.257       .  S
In678       O685   2.247       .  S
In678       O686   2.237       .  S
In678       O687   2.213       .  S
In678       O690   2.201       .  S
C679        O685   1.273       .  A
C679        O687   1.261       .  A
C679        C954   1.472       .  S
O680        C688   1.265       .  A
O681        C688   1.269       .  A
C682        O689   1.264       .  A
C682        O683   1.270       .  A
C682        C913   1.476       .  S
C684        O686   1.269       .  A
C684        O690   1.263       .  A
C684        C932   1.468       .  S
C688        C917   1.467       .  S
C691        C692   1.539       .  S
C691        C697   1.539       .  S
C691        C695   1.542       .  S
C691        C905   1.515       .  S
C692        H699   1.086       .  S
C692        C693   1.364       .  D
C693        C694   1.537       .  S
C693        C949   1.476       .  S
C694        C698   1.540       .  S
C694        C696   1.540       .  S
C694        H700   1.112       .  S
C695        H701   1.087       .  S
C695        C696   1.364       .  D
C697        H702   1.084       .  S
C697        C698   1.369       .  D
C698        C909   1.485       .  S
In703      O1025   2.223   1_554  S
In703      O1026   2.251   1_554  S
In703       O714   2.224       .  S
In703       O708   2.255       .  S
In703       O710   2.253       .  S
In703       O711   2.262       .  S
In703      O1032   2.219   1_554  S
In703       O715   2.205       .  S
C704        O710   1.269       .  A
C704       O1032   1.262   1_554  A
O705      In1023   2.234       .  S
O705        C713   1.263       .  A
O706      In1023   2.254       .  S
O706        C713   1.268       .  A
C707        O714   1.264       .  A
C707        O708   1.269       .  A
C707        C897   1.475       .  S
C709        O711   1.270       .  A
C709        O715   1.262       .  A
C709        C910   1.479       .  S
O712      In1023   2.213       .  S
O712       C1024   1.261       .  A
C713        C939   1.478       .  S
C716        C717   1.544       .  S
C716        C722   1.539       .  S
C716        C720   1.535       .  S
C716        C889   1.513       .  S
C717        H724   1.086       .  S
C717        C718   1.369       .  D
C718        C719   1.538       .  S
C718        C944   1.455       .  S
C719        C723   1.537       .  S
C719        C721   1.534       .  S
C719        H725   1.112       .  S
C720        H726   1.086       .  S
C720        C721   1.359       .  D
C721        C918   1.468       .  S
C722        H727   1.085       .  S
C722        C723   1.368       .  D
C723        C894   1.483       .  S
In728       O730   2.202       .  S
In728       O731   2.248       .  S
In728       O739   2.209       .  S
In728       O733   2.247       .  S
In728       O735   2.228       .  S
In728      O1056   2.244       .  S
In728       O737   2.197       .  S
In728       O740   2.208       .  S
C729        O735   1.273       .  A
C729        O737   1.267       .  A
C729        C902   1.466       .  S
O730        C738   1.265       .  A
O731        C738   1.271       .  A
C732        O739   1.263       .  A
C732        O733   1.270       .  A
C732        C885   1.470       .  S
C734        O736   1.269       .  A
C734       O1060   1.262   1_554  A
C734        C925   1.460       .  S
O736      In1048   2.238   1_554  S
C738        C893   1.475       .  S
O740       C1054   1.263       .  A
C741        C742   1.540       .  S
C741        C747   1.539       .  S
C741        C745   1.544       .  S
C741        C945   1.520       .  S
C742        H749   1.086       .  S
C742        C743   1.365       .  D
C743        C744   1.536       .  S
C743        C875   1.476       .  S
C744        C748   1.536       .  S
C744        C746   1.538       .  S
C744        H750   1.112       .  S
C745        H751   1.086       .  S
C745        C746   1.366       .  D
C746        C879   1.454       .  S
C747        H752   1.085       .  S
C747        C748   1.368       .  D
C748        C882   1.484       .  S
In753       O755   2.233       .  S
In753       O756   2.264       .  S
In753       O764   2.253       .  S
In753       O758   2.246       .  S
In753       O760   2.247       .  S
In753       O761   2.263       .  S
In753       O762   2.232       .  S
In753       O765   2.220       .  S
C754        O760   1.263       .  A
C754        O762   1.259       .  A
C754        C871   1.469       .  S
O755        C763   1.259       .  A
O756        C763   1.264       .  A
C757        O764   1.265       .  A
C757        O758   1.262       .  A
C757        C935   1.481       .  S
C759        O761   1.266   1_565  A
C759        O765   1.260   1_565  A
C759        C881   1.477       .  S
C763        C868   1.474       .  S
C766        C767   1.542       .  S
C766        C772   1.541       .  S
C766        C770   1.541       .  S
C766        C914   1.519       .  S
C767        H774   1.086       .  S
C767        C768   1.364       .  D
C768        C769   1.537       .  S
C768        C862   1.454       .  S
C769        C773   1.534       .  S
C769        C771   1.532       .  S
C769        H775   1.112       .  S
C770        H776   1.086       .  S
C770        C771   1.370       .  D
C771        C858   1.477       .  S
C772        H777   1.085       .  S
C772        C773   1.368       .  D
C773        C864   1.482       .  S
In778       O780   2.217       .  S
In778       O781   2.258   1_565  S
In778       O789   2.224       .  S
In778       O783   2.261       .  S
In778       O785   2.249       .  S
In778       O786   2.253       .  S
In778       O787   2.209       .  S
In778       O790   2.218       .  S
C779        O785   1.269       .  A
C779        O787   1.262       .  A
C779        C872   1.471       .  S
O780        C788   1.261   1_565  A
O781        C788   1.265       .  A
C782        O789   1.259       .  A
C782        O783   1.265       .  A
C782        C921   1.468       .  S
C784        O786   1.265       .  A
C784        O790   1.262       .  A
C784        C853   1.469       .  S
C788        C863   1.475       .  S
C791        C792   1.541       .  S
C791        C797   1.536       .  S
C791        C795   1.539       .  S
C791        C898   1.518       .  S
C792        H799   1.086       .  S
C792        C793   1.364       .  D
C793        C794   1.541       .  S
C793        C861   1.454       .  S
C794        C798   1.538       .  S
C794        C796   1.539       .  S
C794        H800   1.111       .  S
C795        H801   1.086       .  S
C795        C796   1.368       .  D
C796        C867   1.478       .  S
C797        H802   1.084       .  S
C797        C798   1.367       .  D
C798        C849   1.485       .  S
In803       O805   2.219   1_565  S
In803       O806   2.249   1_565  S
In803       O814   2.234       .  S
In803       O808   2.249       .  S
In803       O810   2.251       .  S
In803      O1131   2.247   1_554  S
In803      O1132   2.210   1_564  S
In803      O1135   2.228   1_554  S
C804        O810   1.268       .  A
C804       O1132   1.260   1_564  A
C804       C1165   1.470   1_565  S
O805        C813   1.261       .  A
O806        C813   1.267       .  A
C807        O814   1.263       .  A
C807        O808   1.267       .  A
C807        C906   1.475       .  S
C809        O811   1.267       .  A
C809        O815   1.264       .  A
C809        C876   1.472       .  S
O811      In1123   2.244       .  S
O812      In1123   2.210       .  S
O812       C1124   1.260       .  A
C813        C850   1.473       .  S
O815      In1123   2.229       .  S
C816        C817   1.538       .  S
C816        C822   1.537       .  S
C816        C820   1.545       .  S
C816        C886   1.512       .  S
C817        H824   1.086       .  S
C817        C818   1.367       .  D
C818        C819   1.533       .  S
C818        C854   1.472       .  S
C819        C823   1.542       .  S
C819        C821   1.534       .  S
C819        H825   1.112       .  S
C820        H826   1.086       .  S
C820        C821   1.364       .  D
C821        C880   1.453       .  S
C822        H827   1.084       .  S
C822        C823   1.368       .  D
C823        C841   1.487       .  S
In828       O830   2.211       .  S
In828      O1151   2.243       .  S
In828       O839   2.229       .  S
In828       O833   2.244       .  S
In828       O835   2.239       .  S
In828       O836   2.251       .  S
In828       O837   2.197       .  S
In828       O840   2.209       .  S
C829        O835   1.274       .  A
C829        O837   1.266       .  A
C829        C846   1.469       .  S
O830       C1158   1.263       .  A
O831      In1148   2.243   1_554  S
O831        C838   1.269       .  A
C832        O839   1.263       .  A
C832        O833   1.270       .  A
C832        C890   1.476       .  S
C834        O836   1.271       .  A
C834        O840   1.264       .  A
C834        C842   1.477   1_545  S
C838       O1150   1.261       .  A
C838        C857   1.468       .  S
C841        H843   1.087       .  S
C841        C842   1.350       .  D
C842        H844   1.083       .  S
C845       C1124   1.468       .  S
C845        H847   1.087       .  S
C845        C846   1.347   1_565  D
C846        H848   1.086       .  S
C849        H851   1.086       .  S
C849        C850   1.349       .  D
C850        H852   1.083       .  S
C853        H855   1.086       .  S
C853        C854   1.340       .  D
C854        H856   1.088       .  S
C857        H859   1.087       .  S
C857        C858   1.337       .  D
C858        H860   1.087       .  S
C861        C862   1.213       .  T
C863        H865   1.085       .  S
C863        C864   1.347       .  D
C864        H866   1.087       .  S
C867        H869   1.087       .  S
C867        C868   1.344       .  D
C868        H870   1.085       .  S
C871        H873   1.087       .  S
C871        C872   1.346   1_545  D
C872        H874   1.086       .  S
C875        H877   1.086       .  S
C875        C876   1.342       .  D
C876        H878   1.087       .  S
C879        C880   1.213       .  T
C881        H883   1.084       .  S
C881        C882   1.348       .  D
C882        H884   1.086       .  S
C885        H887   1.087       .  S
C885        C886   1.341       .  D
C886        H888   1.087       .  S
C889        H891   1.087       .  S
C889        C890   1.340       .  D
C890        H892   1.086       .  S
C893        H895   1.085       .  S
C893        C894   1.348       .  D
C894        H896   1.087       .  S
C897        H899   1.087       .  S
C897        C898   1.345       .  D
C898        H900   1.086       .  S
C901        H903   1.087       .  S
C901        C902   1.345       .  D
C902        H904   1.087       .  S
C905        H907   1.086       .  S
C905        C906   1.344       .  D
C906        H908   1.086       .  S
C909        H911   1.087       .  S
C909        C910   1.350       .  D
C910        H912   1.083       .  S
C913        H915   1.087       .  S
C913        C914   1.344       .  D
C914        H916   1.086       .  S
C917        H919   1.087       .  S
C917        C918   1.339       .  D
C918        H920   1.087       .  S
C921        H923   1.087       .  S
C921        C922   1.342       .  D
C922        H924   1.086       .  S
C925        H927   1.087       .  S
C925        C926   1.336       .  D
C926        H928   1.087       .  S
C929        C930   1.212       .  T
C931        H933   1.086       .  S
C931        C932   1.347       .  D
C932        H934   1.084       .  S
C935        H937   1.086       .  S
C935        C936   1.344       .  D
C936        H938   1.087       .  S
C939        H941   1.086       .  S
C939        C940   1.346       .  D
C940        H942   1.086       .  S
C943        C944   1.214       .  T
C945        H947   1.087       .  S
C945        C946   1.344       .  D
C946        H948   1.087       .  S
C949        H951   1.086       .  S
C949        C950   1.342       .  D
C950        H952   1.087       .  S
C953        C954   1.335       .  D
C954        H956   1.086       .  S
C957        H959   1.085       .  S
C957        C958   1.349       .  D
C958        H960   1.087       .  S
In961       O963   2.220       .  S
In961       O964   2.239       .  S
In961       O972   2.231       .  S
In961       O966   2.241       .  S
In961       O968   2.255       .  S
In961       O969   2.250       .  S
In961       O970   2.193       .  S
In961       O973   2.226       .  S
C962        O968   1.268       .  A
C962        O970   1.258       .  A
O963        C971   1.260       .  A
O964        C971   1.268       .  A
C965        O972   1.265       .  A
C965        O966   1.266       .  A
C965       C1266   1.476       .  S
C967        O969   1.265       .  A
C967        O973   1.263       .  A
C967       C1270   1.473       .  S
C971       C1277   1.468       .  S
C974        C975   1.534       .  S
C974        C980   1.536       .  S
C974        C978   1.545       .  S
C974       C1256   1.513       .  S
C975        H982   1.086       .  S
C975        C976   1.361       .  D
C976        C977   1.541       .  S
C977        C981   1.542       .  S
C977        C979   1.533       .  S
C977        H983   1.109       .  S
C978        H984   1.086       .  S
C978        C979   1.372       .  D
C979       C1260   1.478       .  S
C980        H985   1.087       .  S
C980        C981   1.360       .  D
C981       C1278   1.482       .  S
C986        C987   1.539       .  S
C986        C992   1.538       .  S
C986        C990   1.542       .  S
C986       C1242   1.514       .  S
C987        H994   1.086       .  S
C987        C988   1.366       .  D
C988        C989   1.539       .  S
C988       C1246   1.476       .  S
C989        C993   1.535       .  S
C989        C991   1.532       .  S
C989        H995   1.111       .  S
C990        H996   1.086       .  S
C990        C991   1.363       .  D
C991       C1249   1.449       .  S
C992        H997   1.086       .  S
C992        C993   1.369       .  D
C993       C1251   1.479       .  S
In998      O1000   2.221       .  S
In998      O1001   2.252       .  S
In998      O1009   2.245       .  S
In998      O1003   2.244       .  S
In998      O1005   2.251       .  S
In998      O1006   2.248       .  S
In998      O1007   2.223       .  S
In998      O1010   2.218       .  S
C999       O1005   1.265       .  A
C999       O1007   1.259       .  A
C999       C1274   1.469       .  S
O1000      C1008   1.260       .  A
O1001      C1008   1.263       .  A
C1002      O1009   1.265       .  A
C1002      O1003   1.263       .  A
C1002      C1233   1.477       .  S
C1004      O1006   1.265       .  A
C1004      O1010   1.261       .  A
C1004      C1252   1.472       .  S
C1008      C1237   1.467       .  S
C1011      C1012   1.533       .  S
C1011      C1017   1.534       .  S
C1011      C1015   1.540       .  S
C1011      C1225   1.512       .  S
C1012      H1019   1.086       .  S
C1012      C1013   1.363       .  D
C1013      C1014   1.543       .  S
C1013      C1269   1.476       .  S
C1014      C1018   1.545       .  S
C1014      C1016   1.541       .  S
C1014      H1020   1.111       .  S
C1015      H1021   1.086       .  S
C1015      C1016   1.364       .  D
C1017      H1022   1.084       .  S
C1017      C1018   1.369       .  D
C1018      C1229   1.492       .  S
In1023     O1034   2.229       .  S
In1023     O1028   2.240       .  S
In1023     O1030   2.244       .  S
In1023     O1031   2.257       .  S
In1023     O1035   2.233       .  S
C1024      O1030   1.267       .  A
O1025      C1033   1.262       .  A
O1026      C1033   1.270       .  A
C1027      O1034   1.263       .  A
C1027      O1028   1.266       .  A
C1027      C1217   1.470       .  S
C1029      O1031   1.268       .  A
C1029      O1035   1.261       .  A
C1029      C1230   1.479       .  S
C1033      C1259   1.475       .  S
C1036      C1037   1.542       .  S
C1036      C1042   1.537       .  S
C1036      C1040   1.535       .  S
C1036      C1209   1.510       .  S
C1037      H1044   1.086       .  S
C1037      C1038   1.365       .  D
C1038      C1039   1.538       .  S
C1038      C1264   1.453       .  S
C1039      C1043   1.534       .  S
C1039      C1041   1.538       .  S
C1039      H1045   1.112       .  S
C1040      H1046   1.086       .  S
C1040      C1041   1.363       .  D
C1041      C1238   1.470       .  S
C1042      H1047   1.084       .  S
C1042      C1043   1.367       .  D
C1043      C1214   1.480       .  S
In1048     O1050   2.210       .  S
In1048     O1051   2.242       .  S
In1048     O1059   2.210       .  S
In1048     O1053   2.261       .  S
In1048     O1055   2.240       .  S
In1048     O1057   2.209       .  S
In1048     O1060   2.205       .  S
C1049      O1055   1.271       .  A
C1049      O1057   1.264       .  A
C1049      C1222   1.469       .  S
O1050      C1058   1.263       .  A
O1051      C1058   1.266       .  A
C1052      O1059   1.260       .  A
C1052      O1053   1.268       .  A
C1052      C1205   1.469       .  S
C1054      O1056   1.272       .  A
C1054      C1245   1.465       .  S
C1058      C1213   1.470       .  S
C1061      C1062   1.539       .  S
C1061      C1067   1.536       .  S
C1061      C1065   1.539       .  S
C1061      C1265   1.512       .  S
C1062      H1069   1.086       .  S
C1062      C1063   1.366       .  D
C1063      C1064   1.538       .  S
C1063      C1195   1.476       .  S
C1064      C1068   1.536       .  S
C1064      C1066   1.538       .  S
C1064      H1070   1.111       .  S
C1065      H1071   1.086       .  S
C1065      C1066   1.363       .  D
C1066      C1199   1.449       .  S
C1067      H1072   1.085       .  S
C1067      C1068   1.367       .  D
C1068      C1202   1.480       .  S
In1073     O1075   2.242       .  S
In1073     O1076   2.252       .  S
In1073     O1084   2.246       .  S
In1073     O1078   2.244       .  S
In1073     O1080   2.253       .  S
In1073     O1081   2.248       .  S
In1073     O1082   2.229       .  S
In1073     O1085   2.217       .  S
C1074      O1080   1.264       .  A
C1074      O1082   1.259       .  A
C1074      C1191   1.472       .  S
O1075      C1083   1.261       .  A
O1076      C1083   1.261       .  A
C1077      O1084   1.264       .  A
C1077      O1078   1.262       .  A
C1077      C1255   1.476       .  S
C1079      O1081   1.265       .  A
C1079      O1085   1.261       .  A
C1079      C1201   1.471   1_545  S
C1083      C1188   1.473       .  S
C1086      C1087   1.540       .  S
C1086      C1092   1.539       .  S
C1086      C1090   1.540       .  S
C1086      C1234   1.514       .  S
C1087      H1094   1.086       .  S
C1087      C1088   1.361       .  D
C1088      C1089   1.534       .  S
C1088      C1182   1.451       .  S
C1089      C1093   1.538       .  S
C1089      C1091   1.537       .  S
C1089      H1095   1.112       .  S
C1090      H1096   1.086       .  S
C1090      C1091   1.366       .  D
C1091      C1178   1.475       .  S
C1092      H1097   1.085       .  S
C1092      C1093   1.370       .  D
C1093      C1184   1.485       .  S
In1098     O1100   2.228   1_565  S
In1098     O1101   2.251   1_565  S
In1098     O1109   2.245       .  S
In1098     O1103   2.259       .  S
In1098     O1105   2.252       .  S
In1098     O1106   2.265       .  S
In1098     O1107   2.223   1_565  S
In1098     O1110   2.222       .  S
C1099      O1105   1.267       .  A
C1099      O1107   1.261   1_565  A
C1099      C1192   1.472   1_565  S
O1100      C1108   1.262       .  A
O1101      C1108   1.265       .  A
C1102      O1109   1.261       .  A
C1102      O1103   1.262       .  A
C1102      C1241   1.479       .  S
C1104      O1106   1.263       .  A
C1104      O1110   1.260       .  A
C1104      C1173   1.473       .  S
C1108      C1183   1.476       .  S
C1111      C1112   1.540       .  S
C1111      C1117   1.536       .  S
C1111      C1115   1.536       .  S
C1111      C1218   1.511       .  S
C1112      H1119   1.086       .  S
C1112      C1113   1.364       .  D
C1113      C1114   1.540       .  S
C1113      C1181   1.451       .  S
C1114      C1118   1.542       .  S
C1114      C1116   1.541       .  S
C1114      H1120   1.112       .  S
C1115      H1121   1.086       .  S
C1115      C1116   1.363       .  D
C1116      C1187   1.476       .  S
C1117      H1122   1.084       .  S
C1117      C1118   1.369       .  D
C1118      C1169   1.489       .  S
In1123     O1125   2.229   1_565  S
In1123     O1126   2.254   1_565  S
In1123     O1134   2.227       .  S
In1123     O1128   2.247       .  S
In1123     O1130   2.246       .  S
C1124      O1130   1.268       .  A
O1125      C1133   1.261       .  A
O1126      C1133   1.267       .  A
C1127      O1134   1.262       .  A
C1127      O1128   1.267       .  A
C1127      C1226   1.471       .  S
C1129      O1131   1.266       .  A
C1129      O1135   1.263       .  A
C1129      C1196   1.472       .  S
C1133      C1170   1.478       .  S
C1136      C1137   1.541       .  S
C1136      C1142   1.537       .  S
C1136      C1140   1.546       .  S
C1136      C1206   1.514       .  S
C1137      H1144   1.086       .  S
C1137      C1138   1.369       .  D
C1138      C1139   1.533       .  S
C1138      C1174   1.474       .  S
C1139      C1143   1.539       .  S
C1139      C1141   1.529       .  S
C1139      H1145   1.112       .  S
C1140      H1146   1.087       .  S
C1140      C1141   1.362       .  D
C1141      C1200   1.449       .  S
C1142      H1147   1.084       .  S
C1142      C1143   1.367       .  D
C1143      C1161   1.484       .  S
In1148     O1150   2.221   1_556  S
In1148     O1159   2.219       .  S
In1148     O1153   2.240       .  S
In1148     O1155   2.245       .  S
In1148     O1156   2.256       .  S
In1148     O1157   2.212       .  S
In1148     O1160   2.204       .  S
C1149      O1155   1.268       .  A
C1149      O1157   1.261       .  A
C1149      C1166   1.470       .  S
O1151      C1158   1.272       .  A
C1152      O1159   1.263       .  A
C1152      O1153   1.268       .  A
C1152      C1210   1.468       .  S
C1154      O1156   1.269       .  A
C1154      O1160   1.262       .  A
C1154      C1162   1.476   1_545  S
C1158      C1177   1.466       .  S
C1161      H1163   1.087       .  S
C1161      C1162   1.349       .  D
C1162      H1164   1.084       .  S
C1165      H1167   1.087   1_545  S
C1165      C1166   1.347   1_554  D
C1166      H1168   1.087       .  S
C1169      H1171   1.087       .  S
C1169      C1170   1.350       .  D
C1170      H1172   1.084       .  S
C1173      H1175   1.086       .  S
C1173      C1174   1.340       .  D
C1174      H1176   1.088       .  S
C1177      H1179   1.087       .  S
C1177      C1178   1.337       .  D
C1178      H1180   1.086       .  S
C1181      C1182   1.211       .  T
C1183      H1185   1.084       .  S
C1183      C1184   1.347       .  D
C1184      H1186   1.086       .  S
C1187      H1189   1.086       .  S
C1187      C1188   1.340       .  D
C1188      H1190   1.087       .  S
C1191      H1193   1.087       .  S
C1191      C1192   1.347       .  D
C1192      H1194   1.086   1_545  S
C1195      H1197   1.087       .  S
C1195      C1196   1.342       .  D
C1196      H1198   1.086       .  S
C1199      C1200   1.210       .  T
C1201      H1203   1.085       .  S
C1201      C1202   1.346       .  D
C1202      H1204   1.086       .  S
C1205      H1207   1.087       .  S
C1205      C1206   1.342       .  D
C1206      H1208   1.086       .  S
C1209      H1211   1.087       .  S
C1209      C1210   1.340       .  D
C1210      H1212   1.087       .  S
C1213      H1215   1.084       .  S
C1213      C1214   1.346       .  D
C1214      H1216   1.087       .  S
C1217      H1219   1.086       .  S
C1217      C1218   1.341       .  D
C1218      H1220   1.087       .  S
C1221      H1223   1.086       .  S
C1221      C1222   1.347       .  D
C1222      H1224   1.087       .  S
C1225      H1227   1.087       .  S
C1225      C1226   1.341       .  D
C1226      H1228   1.086       .  S
C1229      H1231   1.086       .  S
C1229      C1230   1.352       .  D
C1230      H1232   1.084       .  S
C1233      H1235   1.087       .  S
C1233      C1234   1.344       .  D
C1234      H1236   1.087       .  S
C1237      H1239   1.086       .  S
C1237      C1238   1.340       .  D
C1238      H1240   1.087       .  S
C1241      H1243   1.086       .  S
C1241      C1242   1.346       .  D
C1242      H1244   1.087       .  S
C1245      H1247   1.087       .  S
C1245      C1246   1.336       .  D
C1246      H1248   1.086       .  S
C1249      C1250   1.210       .  T
C1251      H1253   1.086       .  S
C1251      C1252   1.345       .  D
C1252      H1254   1.086       .  S
C1255      H1257   1.086       .  S
C1255      C1256   1.344       .  D
C1256      H1258   1.087       .  S
C1259      H1261   1.086       .  S
C1259      C1260   1.338       .  D
C1260      H1262   1.086       .  S
C1263      C1264   1.213       .  T
C1265      H1267   1.087       .  S
C1265      C1266   1.345       .  D
C1266      H1268   1.086       .  S
C1269      H1271   1.087       .  S
C1269      C1270   1.339       .  D
C1270      H1272   1.086       .  S
C1273      C1274   1.347       .  D
C1274      H1276   1.086       .  S
C1277      H1279   1.084       .  S
C1277      C1278   1.340       .  D
C1278      H1280   1.088       .  S
