geometry optimzed in LAMMPS
_audit_creation_date              2020-12-01 
_audit_creation_method            'lammps2cif' 
_symmetry_space_group_name_H-M    'P1' 
_symmetry_Int_Tables_number       1 
_symmetry_cell_setting            triclinic 
loop_ 
_symmetry_equiv_pos_as_xyz 
  x,y,z 
_cell_length_a                    35.06489172 
_cell_length_b                    35.32791454341456 
_cell_length_c                    36.648077907385264 
_cell_angle_alpha                 87.6286964267665 
_cell_angle_beta                  89.07069832444917 
_cell_angle_gamma                 90.77504559488452 
loop_ 
_atom_site_label 
_atom_site_type_symbol 
_atom_site_fract_x 
_atom_site_fract_y 
_atom_site_fract_z 
_atom_site_charge 
O1          O  0.48244749  0.04105490  0.16509604    -0.80400
O2          O  0.02041102  0.48158839  0.33885851    -0.80400
O3          O  0.46361185  0.07958815  0.28385513    -0.80400
O4          O  0.07786801  0.47879710  0.22227518    -0.80400
O5          O  0.01208151  0.04808021  0.30409192    -0.80500
O6          O  0.04664561  0.02301288  0.19246617    -0.80400
O7          O  0.06236989  0.48236770  0.29282891    -0.80400
O8          O  0.47881788  0.08304831  0.20779797    -0.80400
C9          C  0.48534847  0.07518698  0.17469976     1.09300
C10         C  0.05501337  0.48192286  0.32766659     1.09200
C11         C  0.49044085  0.07492526  0.30616744     1.09300
C12         C  0.07864678  0.50450354  0.19830300     1.09200
O13         O  0.51263374  0.46651678  0.15516836    -0.80400
O14         O  0.44797405  0.49950674  0.31700606    -0.80500
O15         O  0.41660748  0.03005577  0.19956032    -0.80400
O16         O  0.02944012  0.42212142  0.27395081    -0.80400
O17         O  0.97588326  0.44021383  0.29513867    -0.80400
O18         O  0.44302400  0.97463574  0.19205077    -0.80400
O19         O  0.01737512  0.43174075  0.20794468    -0.80300
O20         O  0.40725586  0.02323729  0.27468822    -0.80400
Co21       Co  0.49568531  0.99534278  0.19595625     1.51500
Co22       Co  0.99494277  0.49491793  0.29493341     1.51700
Co23       Co  0.44465999  0.05140516  0.24170649     1.51600
Co24       Co  0.02984360  0.47039578  0.24736775     1.51500
O25         O  0.98308221  0.01021335  0.24553218    -1.42300
C26         C  0.01291142  0.43313733  0.17285726     1.09200
C27         C  0.41123077  0.00995347  0.30716763     1.09300
C28         C  0.41642742  0.99780526  0.18545128     1.09300
C29         C  0.00108096  0.41480667  0.29381218     1.09200
O30         O  0.42666377  0.21520381  0.98115515    -0.80400
O31         O  0.98704623  0.31644238  0.43529860    -0.80400
O32         O  0.42218294  0.29400894  0.03355197    -0.80400
O33         O  0.00077560  0.21176082  0.42568970    -0.80400
O34         O  0.43201892  0.31650948  0.47841604    -0.80500
O35         O  0.48116215  0.16031141  0.45775726    -0.80400
O36         O  0.03800876  0.28349929  0.42271341    -0.80400
O37         O  0.42608067  0.22248521  0.04111149    -0.80400
C38         C  0.40981114  0.21133656  0.01218763     1.09300
C39         C  0.01225490  0.30664380  0.41308197     1.09200
C40         C  0.41067460  0.31329255  0.00647145     1.09300
C41         C  0.98866984  0.17662635  0.42751893     1.09200
O42         O  0.04182177  0.19083560  0.98839368    -0.80400
O43         O  0.98606893  0.32289782  0.04567461    -0.80500
O44         O  0.50725371  0.22292630  0.05827660    -0.80400
O45         O  0.06942198  0.26963878  0.49461043    -0.80400
O46         O  0.04336095  0.32594874  0.49003012    -0.80400
O47         O  0.47972932  0.17817265  0.02794437    -0.80400
O48         O  0.07590399  0.21720914  0.44338383    -0.80300
O49         O  0.46556617  0.28069043  0.08747252    -0.80400
Co50       Co  0.48206187  0.20635903  0.97945236     1.51500
Co51       Co  0.98782753  0.31750511  0.48842257     1.51700
Co52       Co  0.46923949  0.26091086  0.04113652     1.51600
Co53       Co  0.03292112  0.24289299  0.46296125     1.51500
O54         O  0.98814174  0.26018856  0.49292182    -1.42300
C55         C  0.07238840  0.19151418  0.46840946     1.09200
C56         C  0.48009217  0.31340897  0.07816779     1.09300
C57         C  0.49752001  0.18830608  0.05594175     1.09300
C58         C  0.07174201  0.30525807  0.49626356     1.09200
O59         O  0.32225604  0.01832146  0.04050202    -0.80400
O60         O  0.20083282  0.43481555  0.52170365    -0.80400
O61         O  0.21968763  0.05697338  0.08789613    -0.80400
O62         O  0.27037784  0.43621123  0.51131379    -0.80400
O63         O  0.20079917  0.49642455  0.07347098    -0.80500
O64         O  0.32059032  0.46267439  0.98873315    -0.80400
O65         O  0.21461700  0.41325433  0.46691117    -0.80400
O66         O  0.27106266  0.00139060  0.07204759    -0.80400
C67         C  0.30700815  0.00413145  0.06962369     1.09300
C68         C  0.19643026  0.40953105  0.49746414     1.09200
C69         C  0.19895762  0.02820421  0.09641975     1.09300
C70         C  0.30513053  0.43476313  0.50360677     1.09200
O71         O  0.29352946  0.01878823  0.43385068    -0.80400
O72         O  0.16506373  0.04281241  0.51581799    -0.80500
O73         O  0.28209912  0.07764769  0.04436119    -0.80400
O74         O  0.20751329  0.48418281  0.43273293    -0.80400
O75         O  0.16172186  0.48467029  0.47202973    -0.80400
O76         O  0.29723792  0.07465050  0.98658205    -0.80400
O77         O  0.27906275  0.45794874  0.43294565    -0.80300
O78         O  0.21342456  0.08079284  0.01653507    -0.80400
Co79       Co  0.30356037  0.01887872  0.98899704     1.51500
Co80       Co  0.18927569  0.49152209  0.51812526     1.51700
Co81       Co  0.23996342  0.03935517  0.04338203     1.51600
Co82       Co  0.23822309  0.46172559  0.47349411     1.51500
O83         O  0.24629057  0.01070119  0.49579269    -1.42300
C84         C  0.29679817  0.48656679  0.41781494     1.09200
C85         C  0.17848119  0.07667897  0.01137429     1.09300
C86         C  0.29815105  0.09221432  0.01593210     1.09300
C87         C  0.17231891  0.48565510  0.43923130     1.09200
C88         C  0.33519130  0.38173647  0.47332792    -0.12500
C89         C  0.32523135  0.39827684  0.50614298     0.04500
C90         C  0.33796669  0.38223445  0.04108272    -0.07800
C91         C  0.36382218  0.35190944  0.04061200    -0.08500
C92         C  0.37536432  0.33620503  0.00756504    -0.03100
C93         C  0.35927931  0.35054848  0.47274508     0.03700
N94         N  0.36915466  0.33541870  0.43829577     0.66200
H95         H  0.32512575  0.39394253  0.44767839     0.15100
H96         H  0.37651679  0.34195096  0.06593574     0.14800
N97         N  0.32711457  0.39780474  0.07521178     0.73900
O98         O  0.35329971  0.30518649  0.42887781    -0.39500
O99         O  0.38822396  0.35532772  0.41496004    -0.39500
O100        O  0.29277438  0.40601152  0.08150684    -0.40200
O101        O  0.35068598  0.39892286  0.10078330    -0.40200
C102        C  0.32890707  0.14704115  0.48399796    -0.12500
C103        C  0.32057038  0.12778183  0.01754144     0.04500
C104        C  0.33998169  0.13733125  0.04945478    -0.07800
C105        C  0.36643435  0.16739272  0.04804314    -0.08500
C106        C  0.37433175  0.18810089  0.01519219    -0.03100
C107        C  0.35538056  0.17697667  0.48266065     0.03700
N108        N  0.36253678  0.19694607  0.44849499     0.66200
H109        H  0.31509555  0.13949766  0.45901428     0.15100
H110        H  0.38307439  0.17238752  0.07208554     0.17500
N111        N  0.33645136  0.11428699  0.08236647     0.73900
O112        O  0.38096256  0.18117718  0.42359952    -0.39500
O113        O  0.34400101  0.22645599  0.44075957    -0.39500
O114        O  0.35900059  0.08719390  0.08794916    -0.40200
O115        O  0.31472241  0.12428473  0.10788972    -0.40200
C116        C  0.10540820  0.35773426  0.52444996    -0.12500
C117        C  0.10791463  0.32505812  0.50417586     0.04500
C118        C  0.14305625  0.31674390  0.48705929    -0.07800
C119        C  0.17318847  0.34349145  0.48703291    -0.08500
C120        C  0.16935361  0.37754421  0.50517183    -0.03100
C121        C  0.13603053  0.38306647  0.52638849     0.03700
N122        N  0.13158925  0.41568456  0.54792029     0.66200
H123        H  0.07867728  0.36466633  0.53761847     0.15100
H124        H  0.19886635  0.33853187  0.47119426     0.14800
N125        N  0.14761732  0.28329308  0.46683955     0.73900
O126        O  0.10826348  0.44101465  0.53855128    -0.39500
O127        O  0.14632541  0.41462540  0.07947652    -0.39500
O128        O  0.12927940  0.27949285  0.43786840    -0.40200
O129        O  0.17503171  0.26152328  0.47383057    -0.40200
C130        C  0.12449965  0.09840797  0.47545255    -0.12500
C131        C  0.15410971  0.10812869  0.99766565     0.04500
C132        C  0.16080391  0.14654473  0.00524307    -0.07800
C133        C  0.13459912  0.17429955  0.99370717    -0.08500
C134        C  0.10286697  0.16356926  0.47541016    -0.03100
C135        C  0.09859860  0.12613015  0.46418160     0.03700
N136        N  0.06798685  0.11570872  0.44124214     0.66200
H137        H  0.12027871  0.06970595  0.46675406     0.15100
H138        H  0.13877429  0.20331433  0.00139759     0.14800
N139        N  0.19273703  0.15750225  0.02629359     0.73900
O140        O  0.06736174  0.12921583  0.40885717    -0.39500
O141        O  0.04130334  0.09104628  0.95614970    -0.39500
O142        O  0.22484702  0.15866661  0.51741177    -0.40200
O143        O  0.18896892  0.15999489  0.06039043    -0.40200
C144        C  0.39011397  0.47671062  0.36515118    -0.12500
C145        C  0.37696365  0.00198250  0.33080463     0.04500
C146        C  0.34606847  0.02711307  0.33269906    -0.07800
C147        C  0.31651019  0.01989011  0.35871353    -0.08500
C148        C  0.32431390  0.48306434  0.38659141    -0.03100
C149        C  0.36270928  0.47375071  0.39334331     0.03700
N150        N  0.37588203  0.46639350  0.42961105     0.66200
H151        H  0.41933204  0.47025974  0.37197202     0.15100
H152        H  0.29469504  0.04087412  0.36185611     0.14800
N153        N  0.34592005  0.06171985  0.31091330     0.73900
O154        O  0.39412831  0.43649246  0.43660445    -0.39500
O155        O  0.37406239  0.92327135  0.42312020    -0.39500
O156        O  0.31876959  0.49316115  0.26469087    -0.40200
O157        O  0.37223654  0.08605568  0.31403984    -0.40200
C158        C  0.15256373  0.49352521  0.37314292    -0.12500
C159        C  0.14270702  0.48587786  0.41013055     0.04500
C160        C  0.10392773  0.47689043  0.41900938    -0.07800
C161        C  0.07674853  0.47544636  0.39167189    -0.08500
C162        C  0.08627653  0.48323161  0.35487912    -0.03100
C163        C  0.12478366  0.49262448  0.34566012     0.03700
N164        N  0.13464682  0.00267237  0.30977096     0.66200
H165        H  0.18051478  0.00172848  0.36642990     0.15100
H166        H  0.04762113  0.46799333  0.39964932     0.14800
N167        N  0.09129924  0.46797589  0.45568074     0.73900
O168        O  0.13160958  0.03650853  0.29786383    -0.39500
O169        O  0.15047216  0.47757689  0.28912289    -0.39500
O170        O  0.08203300  0.49448943  0.47595735    -0.40200
O171        O  0.08067531  0.43450510  0.46443495    -0.40200
C172        C  0.17044855  0.48875167  0.14618209    -0.12500
C173        C  0.17487216  0.02668417  0.12965546     0.04500
C174        C  0.15104281  0.05707215  0.13822767    -0.07800
C175        C  0.11984064  0.05070711  0.16220016    -0.08500
C176        C  0.11422896  0.51236823  0.17717448    -0.03100
C177        C  0.14063704  0.48301755  0.17148860     0.03700
N178        N  0.13566759  0.44603635  0.18846303     0.66200
H179        H  0.18844216  0.46510093  0.13986532     0.15100
H180        H  0.10016187  0.07349011  0.16682080     0.14800
N181        N  0.15640793  0.09367328  0.12073593     0.73900
O182        O  0.11307612  0.42261747  0.17484949    -0.39500
O183        O  0.15880854  0.43459365  0.21236736    -0.39500
O184        O  0.13244568  0.60233640  0.09505069    -0.40200
O185        O  0.18275978  0.11516726  0.13114580    -0.40200
C186        C  0.34854006  0.99685862  0.16549644    -0.12500
C187        C  0.38718230  0.99035631  0.15749917     0.04500
C188        C  0.39782354  0.98354405  0.12102200    -0.07800
C189        C  0.37058796  0.98565776  0.09339795    -0.08500
C190        C  0.33228876  0.99409896  0.10097649    -0.03100
C191        C  0.32105769  0.99795154  0.13783832     0.03700
N192        N  0.28488907  0.50239743  0.14530514     0.66200
H193        H  0.34225302  0.49816977  0.19093684     0.15100
H194        H  0.37998656  0.98241131  0.06538853     0.14800
N195        N  0.43680993  0.97864006  0.11063137     0.73900
O196        O  0.26352568  0.47516197  0.15641284    -0.39500
O197        O  0.27267612  0.03656233  0.15848929    -0.39500
O198        O  0.44703829  0.94699540  0.09943701    -0.40200
O199        O  0.45699753  0.00759257  0.10220356    -0.40200
C200        C  0.99740040  0.14132763  0.32971102    -0.12500
C201        C  0.49286058  0.10097911  0.33662714     0.04500
C202        C  0.47713195  0.08958100  0.37106408    -0.07800
C203        C  0.47465903  0.11525909  0.39878329    -0.08500
C204        C  0.98655732  0.15319871  0.39452881    -0.03100
C205        C  0.99507313  0.16692524  0.35837051     0.03700
N206        N  0.00043119  0.20656742  0.35010930     0.66200
H207        H  0.00262820  0.15218642  0.30197213     0.15100
H208        H  0.46270558  0.10517024  0.42491235     0.14800
N209        N  0.46284800  0.05197099  0.37853910     0.73900
O210        O  0.03207801  0.21902482  0.33749049    -0.39500
O211        O  0.97242493  0.22853316  0.35179363    -0.39500
O212        O  0.48593638  0.02652836  0.38811346    -0.40200
O213        O  0.42786991  0.04710009  0.38625951    -0.40200
C214        C  0.03917929  0.37052734  0.33191817    -0.12500
C215        C  0.00280426  0.38114744  0.31929447     0.04500
C216        C  0.47829233  0.36543637  0.33055090    -0.07800
C217        C  0.47913525  0.33920623  0.36023156    -0.08500
C218        C  0.01095733  0.32537501  0.37627048    -0.03100
C219        C  0.04348311  0.34306083  0.36012833     0.03700
N220        N  0.08056183  0.33650018  0.37458471     0.66200
H221        H  0.06458049  0.38532075  0.32138028     0.15100
H222        H  0.45244992  0.33132995  0.37401406     0.14800
N223        N  0.44242258  0.38027118  0.31932181     0.73900
O224        O  0.09835357  0.30709912  0.36654513    -0.39500
O225        O  0.09736329  0.36211057  0.39149218    -0.39500
O226        O  0.42720810  0.36869027  0.29080689    -0.40200
O227        O  0.42328369  0.39995514  0.34074469    -0.40200
C228        C  0.03462226  0.38134849  0.13411873    -0.12500
C229        C  0.00539096  0.39771778  0.15417156     0.04500
C230        C  0.46419308  0.38369872  0.15142425    -0.07800
C231        C  0.45819234  0.35500597  0.12665332    -0.08500
C232        C  0.48866342  0.34019790  0.10684465    -0.03100
C233        C  0.02751826  0.34950299  0.11329887     0.03700
N234        N  0.05931895  0.32860641  0.09922039     0.66200
H235        H  0.06319391  0.39309687  0.13522913     0.15100
H236        H  0.42954646  0.34413423  0.12278336     0.14800
N237        N  0.43271081  0.39605076  0.17319472     0.73900
O238        O  0.09305719  0.33957571  0.10491156    -0.39500
O239        O  0.05438372  0.29616527  0.08672852    -0.39500
O240        O  0.40005614  0.39894226  0.15950530    -0.40200
O241        O  0.43577163  0.39696594  0.20740692    -0.40200
C242        C  0.49794191  0.17168352  0.12317354    -0.12500
C243        C  0.50232811  0.16033647  0.08702484     0.04500
C244        C  0.01307789  0.12616753  0.08700305    -0.07800
C245        C  0.00745056  0.09891573  0.11548578    -0.08500
C246        C  0.49505109  0.10553932  0.14608263    -0.03100
C247        C  0.49462110  0.14479571  0.15264363     0.03700
N248        N  0.49025387  0.15793062  0.18881770     0.66200
H249        H  0.49545628  0.20150010  0.12849033     0.15100
H250        H  0.01575663  0.07003587  0.11094200     0.14800
N251        N  0.02945071  0.11495312  0.05325441     0.73900
O252        O  0.51828169  0.15714036  0.21000098    -0.39500
O253        O  0.46055905  0.17537785  0.19765564    -0.39500
O254        O  0.06398114  0.12283532  0.04589175    -0.40200
O255        O  0.01155917  0.09218214  0.03389872    -0.40200
O256        O  0.47964613  0.04022856  0.66501625    -0.80400
O257        O  0.01927115  0.48515807  0.84031318    -0.80400
O258        O  0.45417370  0.07589724  0.78371673    -0.80400
O259        O  0.07353949  0.47564696  0.72253687    -0.80400
O260        O  0.01111056  0.04550973  0.80683140    -0.80500
O261        O  0.04865781  0.02135329  0.69283294    -0.80400
O262        O  0.05869889  0.49316198  0.79350902    -0.80400
O263        O  0.46884809  0.08118371  0.70795842    -0.80400
C264        C  0.47826995  0.07427978  0.67518017     1.09300
C265        C  0.05333052  0.48946175  0.82861777     1.09200
C266        C  0.48368037  0.07690037  0.80310853     1.09300
C267        C  0.07871137  0.50328877  0.70033019     1.09200
O268        O  0.50934301  0.46736727  0.65381935    -0.80400
O269        O  0.44598982  0.50385022  0.81976989    -0.80500
O270        O  0.41230548  0.02367838  0.69905467    -0.80400
O271        O  0.04376478  0.42246123  0.77195129    -0.80400
O272        O  0.98730778  0.44124766  0.79068086    -0.80400
O273        O  0.44348708  0.97114864  0.69061080    -0.80400
O274        O  0.00305776  0.43714402  0.71041721    -0.80300
O275        O  0.40397587  0.01321170  0.77437456    -0.80400
Co276      Co  0.49486868  0.99488125  0.69559928     1.51500
Co277      Co  0.99863694  0.49913363  0.79407927     1.51700
Co278      Co  0.43785127  0.04613454  0.74151049     1.51600
Co279      Co  0.02558131  0.46925018  0.75228138     1.51500
O280        O  0.98473511  0.00863489  0.74610141    -1.42300
C281        C  0.00665607  0.43728582  0.67487181     1.09200
C282        C  0.40979985  0.00508622  0.80792768     1.09300
C283        C  0.41524173  0.99219768  0.68409028     1.09300
C284        C  0.01356533  0.41561576  0.79076621     1.09200
O285        O  0.42910143  0.21206426  0.48162462    -0.80400
O286        O  0.98692898  0.31821251  0.93434342    -0.80400
O287        O  0.42092177  0.29343135  0.53233335    -0.80400
O288        O  0.99938065  0.21114351  0.92517445    -0.80400
O289        O  0.43224295  0.31711955  0.97956877    -0.80500
O290        O  0.47552814  0.16243624  0.95327542    -0.80400
O291        O  0.03645640  0.28333889  0.92133715    -0.80400
O292        O  0.42576081  0.22184076  0.54113655    -0.80400
C293        C  0.41096112  0.20927354  0.51206542     1.09300
C294        C  0.01201751  0.30796881  0.91200767     1.09200
C295        C  0.40995131  0.31262220  0.50498816     1.09300
C296        C  0.98841586  0.17565346  0.92747345     1.09200
O297        O  0.04188448  0.18996549  0.48875782    -0.80400
O298        O  0.98701067  0.32492344  0.54613364    -0.80500
O299        O  0.50638026  0.22437717  0.56063858    -0.80400
O300        O  0.06841109  0.27010509  0.99288477    -0.80400
O301        O  0.04203483  0.32625979  0.98969052    -0.80400
O302        O  0.48117963  0.17826077  0.53069940    -0.80400
O303        O  0.07454140  0.21753128  0.94186724    -0.80300
O304        O  0.46303957  0.28152633  0.58733786    -0.80400
Co305      Co  0.48483678  0.20557173  0.48199792     1.51500
Co306      Co  0.98676863  0.31747670  0.98781310     1.51700
Co307      Co  0.46809679  0.26120852  0.54144318     1.51600
Co308      Co  0.03158822  0.24295773  0.96172105     1.51500
O309        O  0.98673882  0.26005564  0.99161093    -1.42300
C310        C  0.07172396  0.19220595  0.96727316     1.09200
C311        C  0.47850680  0.31372139  0.57763484     1.09300
C312        C  0.49730260  0.18954531  0.55905042     1.09300
C313        C  0.07061036  0.30569432  0.99497826     1.09200
O314        O  0.32351977  0.01520586  0.53779711    -0.80400
O315        O  0.19971780  0.43512987  0.02190722    -0.80400
O316        O  0.22078612  0.05379889  0.58626815    -0.80400
O317        O  0.26943710  0.43590381  0.01199992    -0.80400
O318        O  0.19942686  0.49557576  0.57323178    -0.80500
O319        O  0.32112244  0.46327898  0.48774918    -0.80400
O320        O  0.21376729  0.41414394  0.96692137    -0.80400
O321        O  0.27230767  0.99844969  0.56953185    -0.80400
C322        C  0.30828197  0.00108349  0.56695821     1.09300
C323        C  0.19544835  0.41010810  0.99734869     1.09200
C324        C  0.19957918  0.02519524  0.59416483     1.09300
C325        C  0.30427932  0.43427362  0.00457460     1.09200
O326        O  0.29333021  0.01899657  0.93627553    -0.80400
O327        O  0.16371536  0.04443932  0.01781088    -0.80500
O328        O  0.28364510  0.07493719  0.54319663    -0.80400
O329        O  0.20749421  0.48540299  0.93330104    -0.80400
O330        O  0.16159484  0.48633190  0.97240793    -0.80400
O331        O  0.29848810  0.07266416  0.48531351    -0.80400
O332        O  0.27843067  0.45800069  0.93414582    -0.80300
O333        O  0.21490977  0.07893960  0.51543255    -0.80400
Co334      Co  0.30468088  0.01690778  0.48637682     1.51500
Co335      Co  0.18942752  0.49222716  0.01871439     1.51700
Co336      Co  0.24131275  0.03690900  0.54152210     1.51600
Co337      Co  0.23766454  0.46217331  0.97428606     1.51500
O338        O  0.24508387  0.01242051  0.99815980    -1.42300
C339        C  0.29597122  0.48665910  0.91908420     1.09200
C340        C  0.17994888  0.07515130  0.51021187     1.09300
C341        C  0.29953346  0.08988416  0.51486747     1.09300
C342        C  0.17229743  0.48745678  0.93957799     1.09200
C343        C  0.33298202  0.37975899  0.97533379    -0.12500
C344        C  0.32434092  0.39772203  0.00772735     0.04500
C345        C  0.33708235  0.38115413  0.53946962    -0.07800
C346        C  0.36214220  0.35023575  0.53885141    -0.08500
C347        C  0.37472045  0.33562315  0.50562180    -0.03100
C348        C  0.35799362  0.34924741  0.97492531     0.03700
N349        N  0.36656199  0.33281118  0.94078970     0.66200
H350        H  0.32152116  0.39062864  0.94973555     0.15100
H351        H  0.37358029  0.33907302  0.56432584     0.14800
N352        N  0.32567022  0.39592774  0.57379031     0.73900
O353        O  0.34380255  0.30858027  0.92870860    -0.39500
O354        O  0.39091391  0.34866728  0.91929938    -0.39500
O355        O  0.29105481  0.40300441  0.58009969    -0.40200
O356        O  0.34918013  0.39749524  0.59941200    -0.40200
C357        C  0.32588528  0.15061519  0.98564660    -0.12500
C358        C  0.32159046  0.12573221  0.51650821     0.04500
C359        C  0.33898039  0.13691912  0.54898123    -0.07800
C360        C  0.36555973  0.16693255  0.54763360    -0.08500
C361        C  0.37543621  0.18603464  0.51436562    -0.03100
C362        C  0.35229526  0.18067544  0.98425442     0.03700
N363        N  0.35691794  0.20280698  0.95092998     0.66200
H364        H  0.31043940  0.14427033  0.96120526     0.15100
H365        H  0.38064848  0.17323109  0.57228647     0.17500
N366        N  0.33305817  0.11578134  0.58276087     0.73900
O367        O  0.37647436  0.19013098  0.92505189    -0.39500
O368        O  0.33459219  0.22987021  0.94449850    -0.39500
O369        O  0.35670818  0.09093951  0.59267224    -0.40200
O370        O  0.30728779  0.12541645  0.60479596    -0.40200
C371        C  0.10454830  0.35775582  0.02360148    -0.12500
C372        C  0.10681723  0.32564139  0.00249143     0.04500
C373        C  0.14159854  0.31808562  0.98433937    -0.07800
C374        C  0.17184764  0.34466455  0.98502342    -0.08500
C375        C  0.16840391  0.37795928  0.00448054    -0.03100
C376        C  0.13525848  0.38289110  0.02610134     0.03700
N377        N  0.13099950  0.41485609  0.04854831     0.66200
H378        H  0.07792654  0.36442939  0.03709917     0.15100
H379        H  0.19723388  0.34034285  0.96854934     0.14800
N380        N  0.14547685  0.28595661  0.96210132     0.73900
O381        O  0.10734488  0.44025040  0.04021574    -0.39500
O382        O  0.14628689  0.41615182  0.57910670    -0.39500
O383        O  0.12453212  0.28269992  0.93472790    -0.40200
O384        O  0.17413788  0.26497736  0.96565335    -0.40200
C385        C  0.12215629  0.09879260  0.97709829    -0.12500
C386        C  0.15564010  0.10707250  0.49732322     0.04500
C387        C  0.16074400  0.14490383  0.50782524    -0.07800
C388        C  0.13395812  0.17260208  0.49730335    -0.08500
C389        C  0.10225024  0.16445175  0.97388380    -0.03100
C390        C  0.09661214  0.12643784  0.96498898     0.03700
N391        N  0.06509252  0.11545833  0.94339898     0.66200
H392        H  0.11703672  0.06971059  0.97007214     0.15100
H393        H  0.13697527  0.20104815  0.50692396     0.14800
N394        N  0.19151481  0.15520449  0.53074037     0.73900
O395        O  0.06597482  0.12351943  0.90953951    -0.39500
O396        O  0.04705107  0.08742121  0.45034171    -0.39500
O397        O  0.22254647  0.17053535  0.01033274    -0.40200
O398        O  0.18442597  0.16766644  0.56186730    -0.40200
C399        C  0.38794958  0.47623027  0.86544208    -0.12500
C400        C  0.37752055  0.99449068  0.83376253     0.04500
C401        C  0.33865948  0.00179871  0.82651681    -0.07800
C402        C  0.31080009  0.99642325  0.85463397    -0.08500
C403        C  0.32275279  0.48342362  0.88765286    -0.03100
C404        C  0.36068640  0.47194643  0.89351996     0.03700
N405        N  0.37392836  0.46158982  0.92915905     0.66200
H406        H  0.41692327  0.46794541  0.87136577     0.15100
H407        H  0.28154695  0.00416120  0.84933186     0.14800
N408        N  0.32728598  0.01686439  0.79165659     0.73900
O409        O  0.39052544  0.43036599  0.93398661    -0.39500
O410        O  0.37899146  0.99405110  0.95301733    -0.39500
O411        O  0.31785335  0.50368459  0.76637325    -0.40200
O412        O  0.32672552  0.05226241  0.78552887    -0.40200
C413        C  0.15205135  0.49867758  0.87347448    -0.12500
C414        C  0.14267824  0.48888121  0.91026474     0.04500
C415        C  0.10394245  0.47996809  0.91907769    -0.07800
C416        C  0.07619809  0.48129980  0.89217688    -0.08500
C417        C  0.08512701  0.49109932  0.85554287    -0.03100
C418        C  0.12370408  0.50020440  0.84625460     0.03700
N419        N  0.13526926  0.99722430  0.81193424     0.66200
H420        H  0.18026603  0.99747710  0.86906667     0.15100
H421        H  0.04718226  0.47355485  0.90030170     0.14800
N422        N  0.09212508  0.46729758  0.95507347     0.73900
O423        O  0.12875230  0.02891689  0.79627447    -0.39500
O424        O  0.15740912  0.49225694  0.79178326    -0.39500
O425        O  0.07550045  0.48995509  0.97556672    -0.40200
O426        O  0.09058733  0.43221338  0.96302841    -0.40200
C427        C  0.16986219  0.48637591  0.64668197    -0.12500
C428        C  0.17487346  0.02385596  0.62701474     0.04500
C429        C  0.15051297  0.05408435  0.63471669    -0.07800
C430        C  0.12050315  0.04849041  0.66016109    -0.08500
C431        C  0.11573919  0.51050070  0.68075384    -0.03100
C432        C  0.14103775  0.48080026  0.67341941     0.03700
N433        N  0.13607415  0.44398197  0.69061055     0.66200
H434        H  0.18686162  0.46244080  0.63912610     0.15100
H435        H  0.10034403  0.07104023  0.66399808     0.14800
N436        N  0.15362974  0.08943051  0.61452321     0.73900
O437        O  0.11731391  0.41890669  0.67485077    -0.39500
O438        O  0.15628162  0.43454357  0.71757723    -0.39500
O439        O  0.13349553  0.60182161  0.59955059    -0.40200
O440        O  0.17020435  0.11707541  0.62854250    -0.40200
C441        C  0.34821889  0.98677325  0.66318061    -0.12500
C442        C  0.38737729  0.98365007  0.65538049     0.04500
C443        C  0.39929799  0.98152363  0.61856971    -0.07800
C444        C  0.37263451  0.98513442  0.59058309    -0.08500
C445        C  0.33368395  0.99069856  0.59812208    -0.03100
C446        C  0.32137683  0.98980512  0.63508917     0.03700
N447        N  0.28274674  0.50527658  0.64439262     0.66200
H448        H  0.33931889  0.50007904  0.69083256     0.15100
H449        H  0.38291509  0.98512698  0.56253315     0.14800
N450        N  0.43878081  0.97979974  0.60869681     0.73900
O451        O  0.26124498  0.47924130  0.65789866    -0.39500
O452        O  0.27014091  0.02776385  0.64927076    -0.39500
O453        O  0.45222501  0.94856345  0.59960735    -0.40200
O454        O  0.45632045  0.01001515  0.59882332    -0.40200
C455        C  0.00106566  0.13854224  0.83110372    -0.12500
C456        C  0.48474082  0.10489824  0.83227694     0.04500
C457        C  0.45382600  0.10670418  0.85749396    -0.07800
C458        C  0.45517878  0.13182279  0.88588833    -0.08500
C459        C  0.98608330  0.15203100  0.89473673    -0.03100
C460        C  0.99902627  0.16442304  0.85936580     0.03700
N461        N  0.01057012  0.20288330  0.85173382     0.66200
H462        H  0.01039293  0.14843196  0.80398910     0.15100
H463        H  0.43181790  0.13155567  0.90565315     0.14800
N464        N  0.42145798  0.08178828  0.85606607     0.73900
O465        O  0.04550685  0.21189609  0.85158564    -0.39500
O466        O  0.98639657  0.22685313  0.84103008    -0.39500
O467        O  0.41361017  0.05988196  0.88330675    -0.40200
O468        O  0.39586947  0.08894257  0.83306883    -0.40200
C469        C  0.04476385  0.36249585  0.82509388    -0.12500
C470        C  0.01075494  0.38076845  0.81504436     0.04500
C471        C  0.47012497  0.36307807  0.83228144    -0.07800
C472        C  0.47401531  0.33541620  0.86054736    -0.08500
C473        C  0.01207010  0.32728635  0.87507963    -0.03100
C474        C  0.04575654  0.33595147  0.85471500     0.03700
N475        N  0.08165376  0.32064429  0.86538107     0.66200
H476        H  0.07141069  0.37056186  0.81136673     0.15100
H477        H  0.44839367  0.32348060  0.87362572     0.14800
N478        N  0.43293248  0.37350658  0.82061901     0.73900
O479        O  0.08763322  0.28576352  0.86237969    -0.39500
O480        O  0.10929248  0.34265182  0.87141658    -0.39500
O481        O  0.41681088  0.35512231  0.79627629    -0.40200
O482        O  0.41412348  0.39709619  0.83820417    -0.40200
C483        C  0.03063391  0.38567973  0.63722003    -0.12500
C484        C  0.99996759  0.40193741  0.65550831     0.04500
C485        C  0.46689895  0.38461393  0.65054298    -0.07800
C486        C  0.45926051  0.35594007  0.62627963    -0.08500
C487        C  0.48865027  0.34025099  0.60587277    -0.03100
C488        C  0.02538323  0.35388256  0.61577773     0.03700
N489        N  0.05837181  0.33390320  0.60290068     0.66200
H490        H  0.05885846  0.39749410  0.64031794     0.15100
H491        H  0.43021682  0.34565675  0.62338493     0.14800
N492        N  0.43669409  0.39707787  0.67384229     0.73900
O493        O  0.09149858  0.34677372  0.60825458    -0.39500
O494        O  0.05511194  0.30076809  0.59155637    -0.39500
O495        O  0.40314813  0.39938809  0.66202576    -0.40200
O496        O  0.44189573  0.39836100  0.70777422    -0.40200
C497        C  0.48588852  0.17216470  0.62524075    -0.12500
C498        C  0.50051618  0.16247190  0.59099916     0.04500
C499        C  0.01131477  0.12399027  0.58468227    -0.07800
C500        C  0.00696492  0.09664685  0.61325395    -0.08500
C501        C  0.48749973  0.10584748  0.64767848    -0.03100
C502        C  0.47914382  0.14433525  0.65339979     0.03700
N503        N  0.46131154  0.15534358  0.68656087     0.66200
H504        H  0.47714698  0.20100594  0.62936063     0.15100
H505        H  0.01214737  0.06734076  0.60744447     0.14800
N506        N  0.02262032  0.11218110  0.54933449     0.73900
O507        O  0.48125201  0.16883859  0.71139310    -0.39500
O508        O  0.42540233  0.15621709  0.68906441    -0.39500
O509        O  0.05754667  0.11241317  0.54054461    -0.40200
O510        O  0.99896405  0.09517057  0.52999410    -0.40200
O511        O  0.48634862  0.54363663  0.16495074    -0.80400
O512        O  0.01926896  0.98056336  0.33970127    -0.80400
O513        O  0.45864144  0.57621847  0.28415091    -0.80400
O514        O  0.07666763  0.98072174  0.22357051    -0.80400
O515        O  0.01208397  0.54809020  0.30215839    -0.80500
O516        O  0.04768157  0.52096681  0.19126094    -0.80400
O517        O  0.06123662  0.98198177  0.29373497    -0.80400
O518        O  0.47447275  0.58445081  0.20824424    -0.80400
C519        C  0.48497867  0.57757790  0.17561881     1.09300
C520        C  0.05390664  0.98096650  0.32857069     1.09200
C521        C  0.48681213  0.57577409  0.30518607     1.09300
C522        C  0.07759042  0.00667755  0.19984381     1.09200
O523        O  0.50951081  0.96558299  0.15610005    -0.80400
O524        O  0.44383760  0.00307740  0.32046756    -0.80500
O525        O  0.41769897  0.52970738  0.19694704    -0.80400
O526        O  0.02668887  0.92274513  0.27324809    -0.80400
O527        O  0.97344424  0.94116437  0.29493448    -0.80400
O528        O  0.44586171  0.47600255  0.19033148    -0.80400
O529        O  0.01653053  0.93360435  0.20780704    -0.80300
O530        O  0.40923060  0.51354332  0.27170975    -0.80400
Co531      Co  0.49923827  0.49710385  0.19443003     1.51500
Co532      Co  0.99376580  0.99542167  0.29601388     1.51700
Co533      Co  0.44368421  0.54816159  0.24070161     1.51600
Co534      Co  0.02847598  0.97167535  0.24804155     1.51500
O535        O  0.98401809  0.50840214  0.24424802    -1.42300
C536        C  0.01176291  0.93551378  0.17276255     1.09200
C537        C  0.41451879  0.50166574  0.30440978     1.09300
C538        C  0.41882603  0.49800198  0.18274143     1.09300
C539        C  0.99782366  0.91507688  0.29231090     1.09200
O540        O  0.42749922  0.71351481  0.98258188    -0.80400
O541        O  0.98589133  0.81816297  0.43290370    -0.80400
O542        O  0.42006638  0.79407404  0.03486197    -0.80400
O543        O  0.99941861  0.71180485  0.42311680    -0.80400
O544        O  0.43091153  0.81617426  0.47950185    -0.80500
O545        O  0.47967899  0.66120197  0.45458033    -0.80400
O546        O  0.03521755  0.78337358  0.41876443    -0.80400
O547        O  0.42515536  0.72240044  0.04225576    -0.80400
C548        C  0.40974107  0.71050402  0.01315395     1.09300
C549        C  0.00936718  0.80671397  0.40973878     1.09200
C550        C  0.40930235  0.81484150  0.00849729     1.09300
C551        C  0.98804871  0.67649212  0.42528757     1.09200
O552        O  0.04228004  0.69015772  0.98787012    -0.80400
O553        O  0.98678570  0.82408601  0.04526599    -0.80500
O554        O  0.50690298  0.72575518  0.05976230    -0.80400
O555        O  0.06830307  0.77077094  0.49077104    -0.80400
O556        O  0.04223406  0.82707619  0.48704577    -0.80400
O557        O  0.48030388  0.67945610  0.03114262    -0.80400
O558        O  0.07470448  0.71755818  0.44027379    -0.80300
O559        O  0.46317689  0.78074725  0.08919469    -0.80400
Co560      Co  0.48301066  0.70626992  0.98226443     1.51500
Co561      Co  0.98681985  0.81872482  0.48586981     1.51700
Co562      Co  0.46753015  0.76195746  0.04244476     1.51600
Co563      Co  0.03156498  0.74351089  0.45975515     1.51500
O564        O  0.98674560  0.76121580  0.48958090    -1.42300
C565        C  0.07164950  0.69199459  0.46550218     1.09200
C566        C  0.47926512  0.81286512  0.08038407     1.09300
C567        C  0.49788288  0.69096295  0.05861418     1.09300
C568        C  0.07060236  0.80634024  0.49279065     1.09200
O569        O  0.32385281  0.51705807  0.03820643    -0.80400
O570        O  0.19979246  0.93489517  0.52202234    -0.80400
O571        O  0.22103197  0.55401062  0.08632800    -0.80400
O572        O  0.26966908  0.93600490  0.51147418    -0.80400
O573        O  0.19944564  0.99913494  0.07603518    -0.80500
O574        O  0.31924885  0.96402774  0.99090180    -0.80400
O575        O  0.21378953  0.91404169  0.46690026    -0.80400
O576        O  0.27306755  0.49919033  0.06991148    -0.80400
C577        C  0.30901479  0.50253508  0.06732492     1.09300
C578        C  0.19559549  0.90989578  0.49739695     1.09200
C579        C  0.20012282  0.52520766  0.09425349     1.09300
C580        C  0.30438307  0.93383144  0.50380631     1.09200
O581        O  0.29551479  0.51802722  0.43290276    -0.80400
O582        O  0.16378983  0.54189316  0.51502045    -0.80500
O583        O  0.28315080  0.57580254  0.04284789    -0.80400
O584        O  0.20661589  0.98510740  0.43362204    -0.80400
O585        O  0.16096541  0.98541286  0.47298419    -0.80400
O586        O  0.29854630  0.57340050  0.98501815    -0.80400
O587        O  0.27749012  0.95876818  0.43267168    -0.80300
O588        O  0.21465593  0.57888879  0.01535678    -0.80400
Co589      Co  0.30500433  0.51763235  0.98691282     1.51500
Co590      Co  0.18925783  0.99198303  0.51878138     1.51700
Co591      Co  0.24144555  0.53715901  0.04162651     1.51600
Co592      Co  0.23753325  0.96208471  0.47402760     1.51500
O593        O  0.24616426  0.51083653  0.49496576    -1.42300
C594        C  0.29356533  0.98819495  0.41731741     1.09200
C595        C  0.17967536  0.57504786  0.01027502     1.09300
C596        C  0.29915341  0.59073465  0.01455913     1.09300
C597        C  0.17142343  0.98633407  0.44015313     1.09200
C598        C  0.32777359  0.87515281  0.47774264    -0.12500
C599        C  0.32389730  0.89695725  0.50851856     0.04500
C600        C  0.33652305  0.88326359  0.04375695    -0.07800
C601        C  0.36207465  0.85265374  0.04301602    -0.08500
C602        C  0.37370477  0.83731957  0.00982421    -0.03100
C603        C  0.35348065  0.84513473  0.47688226     0.03700
N604        N  0.35827703  0.82585373  0.44351565     0.66200
H605        H  0.31190385  0.88269384  0.45376844     0.15100
H606        H  0.37465237  0.84227356  0.06824996     0.14800
N607        N  0.32591039  0.89861534  0.07811496     0.73900
O608        O  0.32982642  0.80938144  0.43029369    -0.39500
O609        O  0.38669063  0.83391753  0.42294276    -0.39500
O610        O  0.29209394  0.90891553  0.08388898    -0.40200
O611        O  0.34888448  0.89755791  0.10428679    -0.40200
C612        C  0.32792261  0.64830063  0.48271264    -0.12500
C613        C  0.32103509  0.62660997  0.01653102     0.04500
C614        C  0.33830113  0.63749457  0.04918711    -0.07800
C615        C  0.36426810  0.66800353  0.04832955    -0.08500
C616        C  0.37402871  0.68755632  0.01530208    -0.03100
C617        C  0.35473831  0.67801664  0.48157422     0.03700
N618        N  0.36166399  0.69858345  0.44765135     0.66200
H619        H  0.31354446  0.64144631  0.45781891     0.15100
H620        H  0.37938883  0.67401391  0.07303801     0.17500
N621        N  0.33328750  0.61537687  0.08252665     0.73900
O622        O  0.37940959  0.68309679  0.42214570    -0.39500
O623        O  0.34400881  0.72887458  0.44092728    -0.39500
O624        O  0.35326500  0.58634361  0.08821917    -0.40200
O625        O  0.31379579  0.62814282  0.10839139    -0.40200
C626        C  0.10453155  0.85754636  0.52271393    -0.12500
C627        C  0.10676910  0.82597069  0.50087516     0.04500
C628        C  0.14161637  0.81851717  0.48281159    -0.07800
C629        C  0.17204648  0.84475878  0.48434849    -0.08500
C630        C  0.16861271  0.87769710  0.50433291    -0.03100
C631        C  0.13535748  0.88244839  0.52584462     0.03700
N632        N  0.13114499  0.91402908  0.54879637     0.66200
H633        H  0.07786906  0.86398898  0.53626300     0.15100
H634        H  0.19751841  0.84061944  0.46793926     0.14800
N635        N  0.14539729  0.78698419  0.45975812     0.73900
O636        O  0.10741513  0.93950758  0.54095651    -0.39500
O637        O  0.14413410  0.91659026  0.08265829    -0.39500
O638        O  0.12396631  0.78413173  0.43265761    -0.40200
O639        O  0.17435394  0.76626682  0.46233630    -0.40200
C640        C  0.11987847  0.59699408  0.47721137    -0.12500
C641        C  0.15531490  0.60689062  0.99738560     0.04500
C642        C  0.16179367  0.64494074  0.00644463    -0.07800
C643        C  0.13557536  0.67302920  0.99574130    -0.08500
C644        C  0.10184026  0.66339482  0.47197302    -0.03100
C645        C  0.09470506  0.62504536  0.46490242     0.03700
N646        N  0.06259890  0.61423319  0.44401113     0.66200
H647        H  0.11352104  0.56775404  0.47149946     0.15100
H648        H  0.13979255  0.70175335  0.00427256     0.14800
N649        N  0.19350493  0.65513134  0.02817288     0.73900
O650        O  0.06233520  0.62342364  0.41039458    -0.39500
O651        O  0.03939058  0.59572612  0.95778392    -0.39500
O652        O  0.22267702  0.67145908  0.50228528    -0.40200
O653        O  0.18811748  0.66275816  0.06116784    -0.40200
C654        C  0.37604679  0.96889387  0.35324108    -0.12500
C655        C  0.38158903  0.49161379  0.33013380     0.04500
C656        C  0.34294206  0.50007060  0.32286344    -0.07800
C657        C  0.31478572  0.49562197  0.35096142    -0.08500
C658        C  0.31677149  0.98769869  0.38280062    -0.03100
C659        C  0.34611240  0.96128893  0.37845181     0.03700
N660        N  0.34734765  0.92738188  0.40069845     0.66200
H661        H  0.39911967  0.94913239  0.35169032     0.15100
H662        H  0.28574102  0.50386505  0.34536371     0.14800
N663        N  0.33204794  0.51505073  0.28783578     0.73900
O664        O  0.32985486  0.89848053  0.39014619    -0.39500
O665        O  0.38020013  0.49403898  0.44996555    -0.39500
O666        O  0.31737434  0.06987506  0.29174029    -0.40200
O667        O  0.33095755  0.55044197  0.28180549    -0.40200
C668        C  0.15139518  0.99392166  0.37407248    -0.12500
C669        C  0.14176415  0.98594643  0.41105478     0.04500
C670        C  0.10325472  0.97581040  0.41990341    -0.07800
C671        C  0.07608331  0.97366123  0.39255841    -0.08500
C672        C  0.08528320  0.98217978  0.35579744    -0.03100
C673        C  0.12359526  0.99253598  0.34661274     0.03700
N674        N  0.13604081  0.50232381  0.30878067     0.66200
H675        H  0.18186217  0.50057547  0.36550565     0.15100
H676        H  0.04720916  0.96518580  0.40049410     0.14800
N677        N  0.09097410  0.96639871  0.45656907     0.73900
O678        O  0.13562787  0.53646495  0.29723640    -0.39500
O679        O  0.15179054  0.97908703  0.29071038    -0.39500
O680        O  0.07988380  0.99238954  0.47666881    -0.40200
O681        O  0.08277203  0.93236838  0.46559908    -0.40200
C682        C  0.16969270  0.99170460  0.14836756    -0.12500
C683        C  0.17553326  0.52357283  0.12717071     0.04500
C684        C  0.15165240  0.55400745  0.13549377    -0.07800
C685        C  0.12063760  0.54794145  0.15972987    -0.08500
C686        C  0.11338082  0.01494831  0.17927070    -0.03100
C687        C  0.13991526  0.98574587  0.17358591     0.03700
N688        N  0.13502515  0.94862505  0.19028672     0.66200
H689        H  0.18736118  0.96795582  0.14167257     0.15100
H690        H  0.10104856  0.57081971  0.16425528     0.14800
N691        N  0.15682293  0.59040098  0.11754832     0.73900
O692        O  0.11232935  0.92535701  0.17659404    -0.39500
O693        O  0.15847597  0.93688850  0.21378117    -0.39500
O694        O  0.13118005  0.10687785  0.09980732    -0.40200
O695        O  0.18162729  0.61300953  0.12902462    -0.40200
C696        C  0.35112938  0.49387960  0.16297694    -0.12500
C697        C  0.39008308  0.48962205  0.15464685     0.04500
C698        C  0.40108546  0.48516890  0.11787983    -0.07800
C699        C  0.37361310  0.48655760  0.09042718    -0.08500
C700        C  0.33486198  0.49294000  0.09838684    -0.03100
C701        C  0.32357446  0.49527356  0.13540357     0.03700
N702        N  0.28223456  0.00459294  0.14754460     0.66200
H703        H  0.33979856  0.00221857  0.19328952     0.15100
H704        H  0.38316393  0.48483103  0.06227298     0.14800
N705        N  0.44040947  0.48401496  0.10721685     0.73900
O706        O  0.25957892  0.97671931  0.15216529    -0.39500
O707        O  0.27456210  0.53596265  0.14992581    -0.39500
O708        O  0.45349959  0.45389348  0.09496016    -0.40200
O709        O  0.45825077  0.51480031  0.10034971    -0.40200
C710        C  0.00035402  0.63949351  0.32855150    -0.12500
C711        C  0.48764751  0.60372036  0.33399411     0.04500
C712        C  0.45922041  0.60184163  0.36165079    -0.07800
C713        C  0.45992169  0.62721091  0.38972528    -0.08500
C714        C  0.98543931  0.65303568  0.39233261    -0.03100
C715        C  0.99827379  0.66544128  0.35686879     0.03700
N716        N  0.00947210  0.70400755  0.34912531     0.66200
H717        H  0.00944841  0.64943565  0.30138507     0.15100
H718        H  0.43845570  0.62424816  0.41132106     0.14800
N719        N  0.43025754  0.57302448  0.36266801     0.73900
O720        O  0.04386597  0.71218808  0.34136481    -0.39500
O721        O  0.98439855  0.72912589  0.34556178    -0.39500
O722        O  0.43001752  0.54803868  0.38828473    -0.40200
O723        O  0.40053620  0.57810402  0.34424835    -0.40200
C724        C  0.03319429  0.86212196  0.32206339    -0.12500
C725        C  0.99761955  0.87925419  0.31507607     0.04500
C726        C  0.46861313  0.86083774  0.33091121    -0.07800
C727        C  0.47260438  0.83395672  0.35987212    -0.08500
C728        C  0.00568291  0.82380266  0.37231361    -0.03100
C729        C  0.03753249  0.83473018  0.35043915     0.03700
N730        N  0.07486582  0.82130332  0.35878598     0.66200
H731        H  0.05863862  0.87199679  0.30722732     0.15100
H732        H  0.44709469  0.82164064  0.37283939     0.14800
N733        N  0.43148169  0.86914758  0.31738668     0.73900
O734        O  0.08242217  0.78676783  0.35556928    -0.39500
O735        O  0.10150783  0.84456837  0.36456924    -0.39500
O736        O  0.42416705  0.86331420  0.28447447    -0.40200
O737        O  0.40444954  0.87536482  0.33938011    -0.40200
C738        C  0.03424571  0.88286492  0.13509754    -0.12500
C739        C  0.00440941  0.90027747  0.15347849     0.04500
C740        C  0.46862150  0.88236946  0.15483036    -0.07800
C741        C  0.46078546  0.85368219  0.13058790    -0.08500
C742        C  0.48988341  0.83860454  0.10930466    -0.03100
C743        C  0.02752469  0.85085494  0.11428453     0.03700
N744        N  0.05952695  0.82928012  0.10164174     0.66200
H745        H  0.06294095  0.89387646  0.13757812     0.15100
H746        H  0.43177351  0.84321651  0.12811429     0.14800
N747        N  0.43864602  0.89489826  0.17837583     0.73900
O748        O  0.09317281  0.84012313  0.10790334    -0.39500
O749        O  0.05465935  0.79664022  0.08956596    -0.39500
O750        O  0.40491088  0.89702074  0.16702061    -0.40200
O751        O  0.44451678  0.89744557  0.21207354    -0.40200
C752        C  0.49305207  0.67496815  0.12555413    -0.12500
C753        C  0.50325750  0.66428021  0.09024650     0.04500
C754        C  0.00901842  0.62300413  0.08369147    -0.07800
C755        C  0.00436793  0.59584252  0.11234453    -0.08500
C756        C  0.49454762  0.60891531  0.14821090    -0.03100
C757        C  0.48882035  0.64773154  0.15455915     0.03700
N758        N  0.47730810  0.65986984  0.18972753     0.66200
H759        H  0.48626806  0.70423070  0.13023194     0.15100
H760        H  0.00998559  0.56654635  0.10676266     0.14800
N761        N  0.02107021  0.61101700  0.04865399     0.73900
O762        O  0.50188916  0.66382937  0.21410519    -0.39500
O763        O  0.44383340  0.67143671  0.19484088    -0.39500
O764        O  0.05624897  0.60898380  0.04139702    -0.40200
O765        O  0.99732349  0.59534426  0.02840559    -0.40200
O766        O  0.48105300  0.54255060  0.66498424    -0.80400
O767        O  0.01862010  0.97802296  0.84110003    -0.80400
O768        O  0.46017005  0.57738683  0.78484787    -0.80400
O769        O  0.07912576  0.98000090  0.72460510    -0.80400
O770        O  0.01118013  0.55299730  0.80436183    -0.80500
O771        O  0.05034475  0.52313154  0.69259670    -0.80400
O772        O  0.06142390  0.98112526  0.79569227    -0.80400
O773        O  0.47416567  0.58368366  0.70842357    -0.80400
C774        C  0.48186153  0.57653747  0.67529973     1.09300
C775        C  0.05345912  0.97963112  0.83047294     1.09200
C776        C  0.48874809  0.57509441  0.80551395     1.09300
C777        C  0.07977748  0.00542360  0.70034671     1.09200
O778        O  0.51065773  0.96563497  0.65571777    -0.80400
O779        O  0.44326492  0.00699660  0.82081890    -0.80500
O780        O  0.41484549  0.52871197  0.69911001    -0.80400
O781        O  0.03005793  0.92167250  0.77371349    -0.80400
O782        O  0.97559526  0.93805719  0.79451510    -0.80400
O783        O  0.44333429  0.47480139  0.69027438    -0.80400
O784        O  0.01806615  0.93228709  0.70866606    -0.80300
O785        O  0.40706052  0.51716112  0.77414230    -0.80400
Co786      Co  0.49573877  0.49646466  0.69431644     1.51500
Co787      Co  0.99395087  0.99291228  0.79696828     1.51700
Co788      Co  0.44218537  0.54929154  0.74186435     1.51600
Co789      Co  0.03062527  0.97070992  0.74868409     1.51500
O790        O  0.99042486  0.51634879  0.74246778    -1.42300
C791        C  0.01331445  0.93402126  0.67356892     1.09200
C792        C  0.41253463  0.50560271  0.80691482     1.09300
C793        C  0.41603843  0.49716974  0.68390561     1.09300
C794        C  0.00132597  0.91312165  0.79267585     1.09200
O795        O  0.42865793  0.71289902  0.48044150    -0.80400
O796        O  0.98646135  0.81568841  0.93455313    -0.80400
O797        O  0.42145936  0.79295497  0.53347649    -0.80400
O798        O  0.00395240  0.71341709  0.92497480    -0.80400
O799        O  0.43159537  0.82035726  0.98227182    -0.80500
O800        O  0.47821819  0.66082857  0.95800413    -0.80400
O801        O  0.03948480  0.78529240  0.92372804    -0.80400
O802        O  0.42630207  0.72122370  0.54026762    -0.80400
C803        C  0.41097835  0.70942222  0.51107062     1.09300
C804        C  0.01285741  0.80700906  0.91310090     1.09200
C805        C  0.40960851  0.81215374  0.50654062     1.09300
C806        C  0.99140798  0.67850621  0.92567316     1.09200
O807        O  0.04166083  0.69103825  0.48654659    -0.80400
O808        O  0.98669141  0.82513902  0.54361111    -0.80500
O809        O  0.50757042  0.72373459  0.55837529    -0.80400
O810        O  0.06886903  0.77097727  0.99663004    -0.80400
O811        O  0.04259321  0.82687350  0.98903974    -0.80400
O812        O  0.48151685  0.67794818  0.52849820    -0.80400
O813        O  0.07816399  0.71935735  0.94490819    -0.80300
O814        O  0.46492979  0.78054160  0.58715321    -0.80400
Co815      Co  0.48427021  0.70576954  0.47988222     1.51500
Co816      Co  0.98711908  0.81728316  0.98758647     1.51700
Co817      Co  0.46880823  0.76058572  0.54090257     1.51600
Co818      Co  0.03424404  0.74411437  0.96355977     1.51500
O819        O  0.98833748  0.76017116  0.99221126    -1.42300
C820        C  0.07347027  0.69246977  0.96857867     1.09200
C821        C  0.47998394  0.81301633  0.57772157     1.09300
C822        C  0.49825192  0.68901521  0.55668991     1.09300
C823        C  0.07085187  0.80666939  0.99710464     1.09200
O824        O  0.32282121  0.51753552  0.53768023    -0.80400
O825        O  0.19861710  0.93675905  0.02568453    -0.80400
O826        O  0.21882424  0.55350714  0.58540177    -0.80400
O827        O  0.26844148  0.93767796  0.01514204    -0.80400
O828        O  0.20027106  0.99631652  0.57355782    -0.80500
O829        O  0.32065334  0.96172629  0.48678129    -0.80400
O830        O  0.21262549  0.91511244  0.97087219    -0.80400
O831        O  0.27170841  0.49962503  0.56895296    -0.80400
C832        C  0.30763470  0.50314302  0.56674280     1.09300
C833        C  0.19454430  0.91134630  0.00144233     1.09200
C834        C  0.19895317  0.52413703  0.59422931     1.09300
C835        C  0.30317644  0.93586614  0.00731158     1.09200
O836        O  0.29485872  0.51805761  0.93418349    -0.80400
O837        O  0.16487602  0.54277151  0.01612764    -0.80500
O838        O  0.28174021  0.57633999  0.54156240    -0.80400
O839        O  0.20526948  0.98569702  0.93660680    -0.80400
O840        O  0.15962719  0.98634642  0.97591566    -0.80400
O841        O  0.29743832  0.57346564  0.48380946    -0.80400
O842        O  0.27643704  0.95900392  0.93674400    -0.80300
O843        O  0.21303712  0.57867842  0.51387391    -0.80400
Co844      Co  0.30469908  0.51790530  0.48599950     1.51500
Co845      Co  0.18811940  0.99381325  0.02149789     1.51700
Co846      Co  0.24009108  0.53726423  0.54046882     1.51600
Co847      Co  0.23615853  0.96331466  0.97740285     1.51500
O848        O  0.24657377  0.51096819  0.99597593    -1.42300
C849        C  0.29402694  0.98748318  0.92133969     1.09200
C850        C  0.17807063  0.57442200  0.50887448     1.09300
C851        C  0.29812957  0.59094266  0.51322523     1.09300
C852        C  0.17004610  0.98706213  0.94308460     1.09200
C853        C  0.33219052  0.88183804  0.97782432    -0.12500
C854        C  0.32322191  0.89929407  0.01041254     0.04500
C855        C  0.34047112  0.88394559  0.54152352    -0.07800
C856        C  0.36610022  0.85343785  0.54093774    -0.08500
C857        C  0.37451246  0.83520314  0.50837982    -0.03100
C858        C  0.35679261  0.85103854  0.97725114     0.03700
N859        N  0.36562091  0.83500824  0.94301538     0.66200
H860        H  0.32107669  0.89316055  0.95224340     0.15100
H861        H  0.38099271  0.84515877  0.56555612     0.14800
N862        N  0.33138705  0.90078691  0.57555752     0.73900
O863        O  0.34894941  0.80484890  0.93458567    -0.39500
O864        O  0.38359305  0.85456258  0.91866269    -0.39500
O865        O  0.29794794  0.91195230  0.58175634    -0.40200
O866        O  0.35438472  0.89841471  0.60167269    -0.40200
C867        C  0.32781266  0.64861725  0.98438538    -0.12500
C868        C  0.32091456  0.62636503  0.51493531     0.04500
C869        C  0.33936187  0.63635986  0.54723498    -0.07800
C870        C  0.36602377  0.66627795  0.54617029    -0.08500
C871        C  0.37536311  0.68623796  0.51323704    -0.03100
C872        C  0.35391555  0.67886111  0.98347252     0.03700
N873        N  0.36064683  0.69946786  0.94956640     0.66200
H874        H  0.31395158  0.64135645  0.95934036     0.15100
H875        H  0.38176914  0.67167505  0.57066807     0.17500
N876        N  0.33483203  0.61373015  0.58029803     0.73900
O877        O  0.38064794  0.68494339  0.92500364    -0.39500
O878        O  0.33946213  0.72691311  0.94114869    -0.39500
O879        O  0.35706052  0.58654662  0.58672573    -0.40200
O880        O  0.31246133  0.62412784  0.60513957    -0.40200
C881        C  0.10339834  0.85918723  0.02622642    -0.12500
C882        C  0.10651249  0.82687734  0.00552429     0.04500
C883        C  0.14187869  0.81901725  0.98864958    -0.07800
C884        C  0.17200626  0.84556777  0.98996889    -0.08500
C885        C  0.16779364  0.87911996  0.00883928    -0.03100
C886        C  0.13400722  0.88432314  0.02942455     0.03700
N887        N  0.12918324  0.91643070  0.05156949     0.66200
H888        H  0.07634223  0.86584561  0.03893551     0.15100
H889        H  0.19789359  0.84108674  0.97427673     0.14800
N890        N  0.14648344  0.78669246  0.96680358     0.73900
O891        O  0.10547886  0.94160434  0.04274200    -0.39500
O892        O  0.14688456  0.91351136  0.57953610    -0.39500
O893        O  0.12726041  0.78385187  0.93823008    -0.40200
O894        O  0.17463287  0.76533410  0.97188720    -0.40200
C895        C  0.12328900  0.59824785  0.97659121    -0.12500
C896        C  0.15324742  0.60611647  0.49582525     0.04500
C897        C  0.16155874  0.64479216  0.50125744    -0.07800
C898        C  0.13566919  0.67297807  0.48970139    -0.08500
C899        C  0.10334257  0.66397016  0.97540373    -0.03100
C900        C  0.09766042  0.62625914  0.96542058     0.03700
N901        N  0.06610053  0.61590026  0.94358896     0.66200
H902        H  0.11801360  0.56937484  0.96884685     0.15100
H903        H  0.14130971  0.70222946  0.49583318     0.14800
N904        N  0.19514911  0.65577217  0.51991571     0.73900
O905        O  0.06997726  0.61796312  0.90929915    -0.39500
O906        O  0.03988645  0.58869135  0.45651125    -0.39500
O907        O  0.22532478  0.66297214  0.01294349    -0.40200
O908        O  0.19595677  0.65299927  0.55432610    -0.40200
C909        C  0.38674002  0.97945261  0.86846413    -0.12500
C910        C  0.37972416  0.49469809  0.83194841     0.04500
C911        C  0.34144999  0.50492411  0.82533476    -0.07800
C912        C  0.31339224  0.49917666  0.85314686    -0.08500
C913        C  0.32093548  0.98378525  0.89001700    -0.03100
C914        C  0.35949389  0.97511770  0.89655551     0.03700
N915        N  0.37282404  0.96680989  0.93258070     0.66200
H916        H  0.41617372  0.97358107  0.87497394     0.15100
H917        H  0.28468126  0.50902450  0.84843963     0.14800
N918        N  0.33097963  0.52314398  0.79152620     0.73900
O919        O  0.38962102  0.93596038  0.93906102    -0.39500
O920        O  0.38106960  0.48774875  0.95057836    -0.39500
O921        O  0.31316047  0.99513112  0.76881501    -0.40200
O922        O  0.33018588  0.55883318  0.78853295    -0.40200
C923        C  0.15072017  0.99172323  0.87673828    -0.12500
C924        C  0.14037793  0.98673946  0.91391087     0.04500
C925        C  0.10125223  0.97933996  0.92278786    -0.07800
C926        C  0.07432177  0.97665297  0.89520526    -0.08500
C927        C  0.08437082  0.98195795  0.85817564    -0.03100
C928        C  0.12322199  0.98998687  0.84904255     0.03700
N929        N  0.13448441  0.51187503  0.80967638     0.66200
H930        H  0.18133836  0.50581347  0.86588238     0.15100
H931        H  0.04495051  0.97040075  0.90318968     0.14800
N932        N  0.08797462  0.97337227  0.95972240     0.73900
O933        O  0.12486624  0.54401628  0.79692229    -0.39500
O934        O  0.15682323  0.97417993  0.79657414    -0.39500
O935        O  0.08183527  0.00161292  0.97887062    -0.40200
O936        O  0.07389545  0.94151514  0.96986391    -0.40200
C937        C  0.17105455  0.98972280  0.64745110    -0.12500
C938        C  0.17546378  0.52169720  0.62826942     0.04500
C939        C  0.15315425  0.55249090  0.63875721    -0.07800
C940        C  0.12312341  0.54649484  0.66417899    -0.08500
C941        C  0.11531980  0.01352437  0.67914015    -0.03100
C942        C  0.14224276  0.98453492  0.67393293     0.03700
N943        N  0.13885294  0.94837919  0.69285513     0.66200
H944        H  0.18938421  0.96620302  0.64160238     0.15100
H945        H  0.10446772  0.56983783  0.66981811     0.14800
N946        N  0.15824200  0.58918818  0.62132413     0.73900
O947        O  0.11881036  0.92251960  0.67967897    -0.39500
O948        O  0.16112460  0.94025653  0.71863108    -0.39500
O949        O  0.13347203  0.09508303  0.58667654    -0.40200
O950        O  0.18452358  0.61088341  0.63152786    -0.40200
C951        C  0.34845042  0.49520469  0.66305742    -0.12500
C952        C  0.38735497  0.48972190  0.65533708     0.04500
C953        C  0.39859131  0.48436244  0.61870321    -0.07800
C954        C  0.37151601  0.48615797  0.59089482    -0.08500
C955        C  0.33294757  0.49371307  0.59825556    -0.03100
C956        C  0.32130879  0.49694959  0.63508896     0.03700
N957        N  0.28225433  0.99479169  0.64475830     0.66200
H958        H  0.33860664  0.98901496  0.69125466     0.15100
H959        H  0.38128955  0.48368153  0.56289128     0.14800
N960        N  0.43787702  0.48165693  0.60836613     0.73900
O961        O  0.26280058  0.96660449  0.65693740    -0.39500
O962        O  0.27286640  0.53934973  0.64637247    -0.39500
O963        O  0.44953670  0.45123906  0.59552432    -0.40200
O964        O  0.45677033  0.51179168  0.60138340    -0.40200
C965        C  0.01300900  0.63754284  0.83284446    -0.12500
C966        C  0.49079718  0.60142799  0.83608651     0.04500
C967        C  0.47892089  0.58873012  0.87152924    -0.07800
C968        C  0.47544793  0.61418300  0.89945408    -0.08500
C969        C  0.98840452  0.65715333  0.89187753    -0.03100
C970        C  0.01318033  0.66334617  0.86120376     0.03700
N971        N  0.03967418  0.69450729  0.85918440     0.66200
H972        H  0.03258933  0.64180192  0.80982129     0.15100
H973        H  0.46667738  0.60296928  0.92630068     0.14800
N974        N  0.46897289  0.55002632  0.87983219     0.73900
O975        O  0.07405467  0.68935536  0.86746480    -0.39500
O976        O  0.03023866  0.72544448  0.84366433    -0.39500
O977        O  0.49502305  0.52751412  0.88903267    -0.40200
O978        O  0.43506449  0.54195750  0.88958163    -0.40200
C979        C  0.03985327  0.86901753  0.83051239    -0.12500
C980        C  0.00344978  0.87877619  0.81727890     0.04500
C981        C  0.46535885  0.86656471  0.83706528    -0.07800
C982        C  0.46923188  0.83885193  0.86515469    -0.08500
C983        C  0.01171906  0.82521792  0.87607825    -0.03100
C984        C  0.04421035  0.84253289  0.85954509     0.03700
N985        N  0.08122837  0.83687214  0.87443459     0.66200
H986        H  0.06516025  0.88401350  0.82003071     0.15100
H987        H  0.44397461  0.82960751  0.88061337     0.14800
N988        N  0.42845618  0.88108442  0.82905318     0.73900
O989        O  0.10144542  0.81011620  0.86366325    -0.39500
O990        O  0.09579823  0.86165214  0.89400002    -0.39500
O991        O  0.41298165  0.87384753  0.79924356    -0.40200
O992        O  0.40948344  0.89711886  0.85336878    -0.40200
C993        C  0.03510725  0.88159374  0.63530956    -0.12500
C994        C  0.00554066  0.89888555  0.65419298     0.04500
C995        C  0.46920939  0.88104941  0.65372589    -0.07800
C996        C  0.46147334  0.85296804  0.62876613    -0.08500
C997        C  0.49042094  0.83923677  0.60638129    -0.03100
C998        C  0.02783973  0.85062052  0.61320837     0.03700
N999        N  0.05952366  0.82938690  0.59939749     0.66200
H1000       H  0.06399318  0.89204271  0.63830087     0.15100
H1001       H  0.43271517  0.84162853  0.62688636     0.14800
N1002       N  0.43962788  0.89157601  0.67870361     0.73900
O1003       O  0.09333145  0.84006068  0.60517651    -0.39500
O1004       O  0.05432497  0.79716828  0.58650345    -0.39500
O1005       O  0.40554908  0.89351861  0.66826748    -0.40200
O1006       O  0.44623603  0.89187288  0.71244866    -0.40200
C1007       C  0.49135067  0.67330876  0.62374099    -0.12500
C1008       C  0.50192864  0.66211098  0.58864901     0.04500
C1009       C  0.01274457  0.62813898  0.58480050    -0.07800
C1010       C  0.00845191  0.60141641  0.61377691    -0.08500
C1011       C  0.49115883  0.60740681  0.64723365    -0.03100
C1012       C  0.48576831  0.64639663  0.65291019     0.03700
N1013       N  0.47255717  0.65899540  0.68735547     0.66200
H1014       H  0.48501859  0.70275162  0.62803099     0.15100
H1015       H  0.01618177  0.57242873  0.60901201     0.14800
N1016       N  0.02697605  0.61619583  0.55049412     0.73900
O1017       O  0.49626013  0.66991369  0.71037029    -0.39500
O1018       O  0.43741211  0.66419553  0.69270346    -0.39500
O1019       O  0.06227375  0.61875334  0.54353590    -0.40200
O1020       O  0.00595890  0.59648574  0.53083515    -0.40200
O1021       O  0.98085719  0.04299705  0.16615448    -0.80400
O1022       O  0.52012996  0.48145427  0.33940016    -0.80400
O1023       O  0.96042071  0.07822977  0.28599878    -0.80400
O1024       O  0.57437848  0.47376948  0.22158468    -0.80400
O1025       O  0.51181367  0.04633666  0.30554329    -0.80500
O1026       O  0.54752030  0.02140051  0.19147794    -0.80400
O1027       O  0.55938238  0.49054892  0.29257922    -0.80400
O1028       O  0.97392754  0.08390173  0.20979874    -0.80400
C1029       C  0.98144085  0.07693202  0.17662837     1.09300
C1030       C  0.55412247  0.48630824  0.32764748     1.09200
C1031       C  0.98929346  0.07554047  0.30629893     1.09300
C1032       C  0.57927694  0.50163044  0.19961763     1.09200
O1033       O  0.01052670  0.46484233  0.15502422    -0.80400
O1034       O  0.94528704  0.50413662  0.31949392    -0.80500
O1035       O  0.91404846  0.02949082  0.20060184    -0.80400
O1036       O  0.54516861  0.42002927  0.27043463    -0.80400
O1037       O  0.48843179  0.43809558  0.28923997    -0.80400
O1038       O  0.94241147  0.97549269  0.19123839    -0.80400
O1039       O  0.50416869  0.43479677  0.20921225    -0.80300
O1040       O  0.90585496  0.01891409  0.27574508    -0.80400
Co1041     Co  0.99479802  0.99678544  0.19589511     1.51500
Co1042     Co  0.49922833  0.49597839  0.29347467     1.51700
Co1043     Co  0.94152956  0.05017692  0.24327561     1.51600
Co1044     Co  0.52649200  0.46675688  0.25125994     1.51500
O1045       O  0.48437426  0.00956993  0.24546360    -1.42300
C1046       C  0.50758379  0.43528801  0.17365506     1.09200
C1047       C  0.91124327  0.00789720  0.30866918     1.09300
C1048       C  0.91525561  0.99809675  0.18505572     1.09300
C1049       C  0.51501157  0.41278727  0.28918374     1.09200
O1050       O  0.92856841  0.21194612  0.98245049    -0.80400
O1051       O  0.48689431  0.31549230  0.43223606    -0.80400
O1052       O  0.92016009  0.29312771  0.03371492    -0.80400
O1053       O  0.50200546  0.21111554  0.42492872    -0.80400
O1054       O  0.93318044  0.31857364  0.48140906    -0.80500
O1055       O  0.97967273  0.16116465  0.45854578    -0.80400
O1056       O  0.53867541  0.28320291  0.42151316    -0.80400
O1057       O  0.92565535  0.22128644  0.04198708    -0.80400
C1058       C  0.91063624  0.20892216  0.01292953     1.09300
C1059       C  0.51328110  0.30625177  0.41086364     1.09200
C1060       C  0.90962611  0.31345494  0.00694745     1.09300
C1061       C  0.49041510  0.17583339  0.42682903     1.09200
O1062       O  0.53896142  0.18788207  0.98403466    -0.80400
O1063       O  0.48714714  0.32422602  0.04380719    -0.80500
O1064       O  0.00691716  0.22520470  0.06035914    -0.80400
O1065       O  0.56879138  0.27081181  0.49382881    -0.80400
O1066       O  0.54206450  0.32662990  0.48741745    -0.80400
O1067       O  0.98137218  0.17858869  0.03149717    -0.80400
O1068       O  0.57668890  0.21790110  0.44324089    -0.80300
O1069       O  0.96233041  0.27988267  0.08876127    -0.80400
Co1070     Co  0.98426789  0.20568100  0.98264589     1.51500
Co1071     Co  0.48674791  0.31681496  0.48560949     1.51700
Co1072     Co  0.96760570  0.26123133  0.04215163     1.51600
Co1073     Co  0.53320782  0.24303045  0.46210174     1.51500
O1074       O  0.48777866  0.25967432  0.49117752    -1.42300
C1075       C  0.57293345  0.19222677  0.46823068     1.09200
C1076       C  0.97841501  0.31196878  0.07984544     1.09300
C1077       C  0.99808803  0.19033197  0.05934030     1.09300
C1078       C  0.57066677  0.30654561  0.49443873     1.09200
O1079       O  0.82286731  0.01634318  0.03709332    -0.80400
O1080       O  0.70026295  0.43600530  0.52164222    -0.80400
O1081       O  0.71878211  0.05453944  0.08427802    -0.80400
O1082       O  0.77002794  0.43680184  0.51172979    -0.80400
O1083       O  0.69989179  0.49600070  0.07246659    -0.80500
O1084       O  0.82103493  0.46357944  0.98797958    -0.80400
O1085       O  0.71437863  0.41410300  0.46705880    -0.80400
O1086       O  0.77169849  0.00004971  0.06920950    -0.80400
C1087       C  0.80766826  0.00337515  0.06674645     1.09300
C1088       C  0.69590040  0.41064069  0.49742321     1.09200
C1089       C  0.69815867  0.02560133  0.09247641     1.09300
C1090       C  0.80488041  0.43518707  0.50430323     1.09200
O1091       O  0.79301461  0.02051811  0.43607119    -0.80400
O1092       O  0.66415092  0.04416082  0.51885771    -0.80500
O1093       O  0.78169201  0.07571832  0.04174140    -0.80400
O1094       O  0.70785050  0.48478393  0.43245557    -0.80400
O1095       O  0.66205722  0.48624021  0.47156244    -0.80400
O1096       O  0.79750415  0.07308990  0.98410167    -0.80400
O1097       O  0.77870885  0.45735875  0.43373497    -0.80300
O1098       O  0.71330500  0.07815670  0.01284078    -0.80400
Co1099     Co  0.80407837  0.01721773  0.98559172     1.51500
Co1100     Co  0.68996922  0.49308962  0.51753730     1.51700
Co1101     Co  0.74005975  0.03714239  0.04008575     1.51600
Co1102     Co  0.73810545  0.46230757  0.47372839     1.51500
O1103       O  0.74536908  0.01265269  0.49815832    -1.42300
C1104       C  0.79608460  0.48574592  0.41807703     1.09200
C1105       C  0.67842103  0.07382833  0.00748809     1.09300
C1106       C  0.79822852  0.09036935  0.01366362     1.09300
C1107       C  0.67267604  0.48705184  0.43875669     1.09200
C1108       C  0.83248159  0.37938847  0.47615845    -0.12500
C1109       C  0.82499781  0.39871120  0.50804585     0.04500
C1110       C  0.83720130  0.38254321  0.04120175    -0.07800
C1111       C  0.86228420  0.35156686  0.04083171    -0.08500
C1112       C  0.87425896  0.33616691  0.00777864    -0.03100
C1113       C  0.85767638  0.34896374  0.47605892     0.03700
N1114       N  0.86557173  0.33156500  0.44223364     0.66200
H1115       H  0.82023773  0.38932283  0.45058949     0.15100
H1116       H  0.87427060  0.34095086  0.06626021     0.14800
N1117       N  0.82614459  0.39793524  0.07544084     0.73900
O1118       O  0.84023979  0.31091511  0.42877374    -0.39500
O1119       O  0.89253578  0.34437760  0.42188673    -0.39500
O1120       O  0.79243408  0.40886944  0.08058447    -0.40200
O1121       O  0.84847871  0.39621913  0.10211450    -0.40200
C1122       C  0.82771295  0.14991726  0.48648920    -0.12500
C1123       C  0.82086308  0.12576465  0.01600021     0.04500
C1124       C  0.83966233  0.13497142  0.04840648    -0.07800
C1125       C  0.86642581  0.16479202  0.04768785    -0.08500
C1126       C  0.87516917  0.18562380  0.01511512    -0.03100
C1127       C  0.85442183  0.17969819  0.48530741     0.03700
N1128       N  0.86077054  0.20073460  0.45156633     0.66200
H1129       H  0.81310748  0.14319861  0.46168083     0.15100
H1130       H  0.88252655  0.16961448  0.07210437     0.17500
N1131       N  0.83514455  0.11184830  0.08119127     0.73900
O1132       O  0.87845162  0.18578259  0.42570566    -0.39500
O1133       O  0.84255432  0.23078553  0.44534561    -0.39500
O1134       O  0.86017158  0.08781845  0.08958582    -0.40200
O1135       O  0.80946711  0.11930841  0.10421008    -0.40200
C1136       C  0.60377685  0.35977960  0.52216104    -0.12500
C1137       C  0.60653996  0.32702427  0.50200944     0.04500
C1138       C  0.64178402  0.31874915  0.48508421    -0.07800
C1139       C  0.67217387  0.34510512  0.48601760    -0.08500
C1140       C  0.66843895  0.37888027  0.50464911    -0.03100
C1141       C  0.63465925  0.38469131  0.52508561     0.03700
N1142       N  0.63028409  0.41695891  0.54714049     0.66200
H1143       H  0.57685457  0.36679268  0.53493023     0.15100
H1144       H  0.69800234  0.34016425  0.47039439     0.14800
N1145       N  0.64610130  0.28599631  0.46377530     0.73900
O1146       O  0.60523176  0.44121485  0.53956360    -0.39500
O1147       O  0.64757059  0.41711298  0.07673604    -0.39500
O1148       O  0.62656384  0.28259918  0.43548067    -0.40200
O1149       O  0.67411336  0.26452495  0.46911076    -0.40200
C1150       C  0.62312019  0.09878750  0.47818388    -0.12500
C1151       C  0.65385492  0.10529348  0.99398868     0.04500
C1152       C  0.65980019  0.14349082  0.00274885    -0.07800
C1153       C  0.63291224  0.17103227  0.99232216    -0.08500
C1154       C  0.60317905  0.16438072  0.47539285    -0.03100
C1155       C  0.59772267  0.12650189  0.46601785     0.03700
N1156       N  0.56667858  0.11578494  0.44369357     0.66200
H1157       H  0.61823492  0.06982608  0.47070436     0.15100
H1158       H  0.63695070  0.19991958  0.00045535     0.14800
N1159       N  0.69179209  0.15441581  0.02377529     0.73900
O1160       O  0.56791318  0.12492637  0.41005581    -0.39500
O1161       O  0.53079794  0.10933534  0.95769179    -0.39500
O1162       O  0.72394715  0.16717952  0.51331926    -0.40200
O1163       O  0.68692350  0.16270940  0.05666167    -0.40200
C1164       C  0.88764866  0.47477594  0.36437930    -0.12500
C1165       C  0.87838576  0.99795144  0.33399344     0.04500
C1166       C  0.83991914  0.00712445  0.32682437    -0.07800
C1167       C  0.81165031  0.00119740  0.35448300    -0.08500
C1168       C  0.82252307  0.48186141  0.38659508    -0.03100
C1169       C  0.86043918  0.47037115  0.39242486     0.03700
N1170       N  0.87372429  0.45983940  0.42798885     0.66200
H1171       H  0.91669829  0.46675677  0.37032805     0.15100
H1172       H  0.78273860  0.01019568  0.34933700     0.14800
N1173       N  0.82936664  0.02426994  0.29253796     0.73900
O1174       O  0.88945970  0.42816192  0.43278224    -0.39500
O1175       O  0.87972307  0.99250583  0.45259460    -0.39500
O1176       O  0.81879439  0.49897490  0.26471887    -0.40200
O1177       O  0.83156973  0.05979075  0.28751781    -0.40200
C1178       C  0.65304706  0.49356536  0.37220065    -0.12500
C1179       C  0.64301929  0.48845344  0.40952067     0.04500
C1180       C  0.60373938  0.48320845  0.41875316    -0.07800
C1181       C  0.57623094  0.48361276  0.39165916    -0.08500
C1182       C  0.58587409  0.48854818  0.35449433    -0.03100
C1183       C  0.62497082  0.49366915  0.34479740     0.03700
N1184       N  0.63522706  0.00077682  0.31154581     0.66200
H1185       H  0.68024171  0.00037703  0.36873062     0.15100
H1186       H  0.54672895  0.47909723  0.40019935     0.14800
N1187       N  0.59089796  0.47503086  0.45548786     0.73900
O1188       O  0.62651670  0.03189738  0.29589708    -0.39500
O1189       O  0.65149063  0.47116108  0.29134927    -0.39500
O1190       O  0.58078874  0.50182584  0.47504011    -0.40200
O1191       O  0.58102901  0.44152043  0.46494180    -0.40200
C1192       C  0.67048434  0.48607174  0.14575656    -0.12500
C1193       C  0.67327091  0.02428140  0.12513883     0.04500
C1194       C  0.64859506  0.05435934  0.13247256    -0.07800
C1195       C  0.61882716  0.04884147  0.15814945    -0.08500
C1196       C  0.61624225  0.50939169  0.18017155    -0.03100
C1197       C  0.64174585  0.47997327  0.17246691     0.03700
N1198       N  0.63692987  0.44286565  0.18905691     0.66200
H1199       H  0.68781611  0.46241758  0.13805178     0.15100
H1200       H  0.59853128  0.07129389  0.16188693     0.14800
N1201       N  0.65104444  0.08934805  0.11160393     0.73900
O1202       O  0.61962059  0.41760956  0.17217831    -0.39500
O1203       O  0.65635452  0.43345724  0.21656594    -0.39500
O1204       O  0.63469476  0.59772435  0.09451952    -0.40200
O1205       O  0.66639916  0.11782915  0.12532956    -0.40200
C1206       C  0.84789571  0.99625372  0.16353233    -0.12500
C1207       C  0.88691082  0.99116020  0.15612092     0.04500
C1208       C  0.89865174  0.98654681  0.11952283    -0.07800
C1209       C  0.87195876  0.98871366  0.09142285    -0.08500
C1210       C  0.83310283  0.99519111  0.09851141    -0.03100
C1211       C  0.82102639  0.99779222  0.13531433     0.03700
N1212       N  0.78404604  0.51007696  0.14363031     0.66200
H1213       H  0.84007853  0.50216206  0.19021832     0.15100
H1214       H  0.88213309  0.98660264  0.06350493     0.14800
N1215       N  0.93803637  0.98352693  0.10967454     0.73900
O1216       O  0.76127039  0.48652966  0.15939332    -0.39500
O1217       O  0.77142006  0.03777942  0.14976800    -0.39500
O1218       O  0.94986271  0.95257042  0.09815387    -0.40200
O1219       O  0.95701964  0.01343512  0.10186221    -0.40200
C1220       C  0.50527653  0.13873881  0.33071573    -0.12500
C1221       C  0.99244360  0.10204523  0.33661529     0.04500
C1222       C  0.98371802  0.08886638  0.37264696    -0.07800
C1223       C  0.98005078  0.11420040  0.40056427    -0.08500
C1224       C  0.48849538  0.15257467  0.39388330    -0.03100
C1225       C  0.50373166  0.16444648  0.35915511     0.03700
N1226       N  0.51846899  0.20202360  0.35250045     0.66200
H1227       H  0.51632763  0.14822567  0.30405746     0.15100
H1228       H  0.97337865  0.10255622  0.42777316     0.14800
N1229       N  0.97753083  0.04963508  0.38176939     0.73900
O1230       O  0.55384174  0.20843559  0.35449683    -0.39500
O1231       O  0.49680267  0.22789469  0.34084405    -0.39500
O1232       O  0.00562148  0.03040052  0.39225888    -0.40200
O1233       O  0.94449117  0.03877928  0.39193654    -0.40200
C1234       C  0.54696588  0.36100808  0.32458989    -0.12500
C1235       C  0.51268100  0.37798162  0.31341277     0.04500
C1236       C  0.97053329  0.36153159  0.33363100    -0.07800
C1237       C  0.97483500  0.33364139  0.36163156    -0.08500
C1238       C  0.51377666  0.32499514  0.37371933    -0.03100
C1239       C  0.54783421  0.33478810  0.35443139     0.03700
N1240       N  0.58386824  0.32133543  0.36671919     0.66200
H1241       H  0.57381467  0.37008016  0.31179571     0.15100
H1242       H  0.94948295  0.32003123  0.37366673     0.14800
N1243       N  0.93334438  0.36997936  0.32057299     0.73900
O1244       O  0.59314735  0.28762865  0.36126168    -0.39500
O1245       O  0.60875220  0.34456911  0.37697966    -0.39500
O1246       O  0.91755243  0.34821894  0.29873909    -0.40200
O1247       O  0.91411183  0.39543994  0.33507743    -0.40200
C1248       C  0.53162715  0.38422395  0.13539053    -0.12500
C1249       C  0.50097650  0.40013157  0.15401107     0.04500
C1250       C  0.96843256  0.38104778  0.15462172    -0.07800
C1251       C  0.96032369  0.35235981  0.13048494    -0.08500
C1252       C  0.98917292  0.33758495  0.10870201    -0.03100
C1253       C  0.52638199  0.35274536  0.11353830     0.03700
N1254       N  0.55934800  0.33302406  0.10024817     0.66200
H1255       H  0.55989907  0.39608055  0.13856651     0.15100
H1256       H  0.93134250  0.34160487  0.12855178     0.14800
N1257       N  0.93894436  0.39299952  0.17903360     0.73900
O1258       O  0.59247396  0.34597758  0.10546471    -0.39500
O1259       O  0.55612132  0.30000512  0.08861815    -0.39500
O1260       O  0.90496825  0.39523303  0.16834831    -0.40200
O1261       O  0.94543506  0.39454583  0.21272667    -0.40200
C1262       C  0.98769296  0.17401940  0.12569570    -0.12500
C1263       C  0.00220905  0.16392948  0.09154045     0.04500
C1264       C  0.50621887  0.12138051  0.08103589    -0.07800
C1265       C  0.50284268  0.09469853  0.11025075    -0.08500
C1266       C  0.99055221  0.10819141  0.14897847    -0.03100
C1267       C  0.98154876  0.14656684  0.15424336     0.03700
N1268       N  0.96320787  0.15764506  0.18713530     0.66200
H1269       H  0.97838219  0.20275870  0.12939048     0.15100
H1270       H  0.50531085  0.06505589  0.10439852     0.14800
N1271       N  0.51328840  0.10820750  0.04526862     0.73900
O1272       O  0.98240248  0.17319408  0.21134750    -0.39500
O1273       O  0.92729279  0.15631600  0.18993175    -0.39500
O1274       O  0.54673810  0.09913975  0.03634583    -0.40200
O1275       O  0.48562543  0.09694448  0.02675829    -0.40200
O1276       O  0.98353355  0.04135412  0.66595008    -0.80400
O1277       O  0.52127740  0.48062777  0.83778090    -0.80400
O1278       O  0.96251800  0.07804179  0.78501117    -0.80400
O1279       O  0.57804854  0.48056977  0.72032825    -0.80400
O1280       O  0.50906580  0.05179929  0.80069085    -0.80500
O1281       O  0.54601196  0.02241110  0.69282393    -0.80400
O1282       O  0.56305783  0.48232393  0.79156485    -0.80400
O1283       O  0.97861480  0.08244171  0.70940373    -0.80400
C1284       C  0.98553845  0.07531583  0.67621956     1.09300
C1285       C  0.55585417  0.48114530  0.82646189     1.09200
C1286       C  0.98928493  0.07378658  0.80741842     1.09300
C1287       C  0.57860924  0.50651644  0.69652972     1.09200
O1288       O  0.01200155  0.46833175  0.65612984    -0.80400
O1289       O  0.94741216  0.50324975  0.81739874    -0.80500
O1290       O  0.91707007  0.02931865  0.69971356    -0.80400
O1291       O  0.53005741  0.42278611  0.77199196    -0.80400
O1292       O  0.47642737  0.44055241  0.79328097    -0.80400
O1293       O  0.94419220  0.97441480  0.69172623    -0.80400
O1294       O  0.51697986  0.43338098  0.70609174    -0.80300
O1295       O  0.90723530  0.02108009  0.77472254    -0.80400
Co1296     Co  0.99671644  0.99525951  0.69637378     1.51500
Co1297     Co  0.49540916  0.49524536  0.79446300     1.51700
Co1298     Co  0.94449573  0.05006754  0.74244040     1.51600
Co1299     Co  0.53024348  0.47152569  0.74593589     1.51500
O1300       O  0.48162025  0.00873425  0.74485522    -1.42300
C1301       C  0.51190940  0.43536803  0.67106482     1.09200
C1302       C  0.91106649  0.00801947  0.80728153     1.09300
C1303       C  0.91741818  0.99735135  0.68516720     1.09300
C1304       C  0.50158544  0.41509497  0.79163206     1.09200
O1305       O  0.92885574  0.21347130  0.48356587    -0.80400
O1306       O  0.48587018  0.31523874  0.93293325    -0.80400
O1307       O  0.92188437  0.29416017  0.53478012    -0.80400
O1308       O  0.50208892  0.21257175  0.92302386    -0.80400
O1309       O  0.93206835  0.31855401  0.98077886    -0.80500
O1310       O  0.98040557  0.16017955  0.95870154    -0.80400
O1311       O  0.53818787  0.28413961  0.92114559    -0.80400
O1312       O  0.92663646  0.22252482  0.54325044    -0.80400
C1313       C  0.91118486  0.21051607  0.51424019     1.09300
C1314       C  0.51175585  0.30638324  0.91097164     1.09200
C1315       C  0.91103576  0.31403828  0.50779556     1.09300
C1316       C  0.48795325  0.17823259  0.92339668     1.09200
O1317       O  0.54227799  0.19041975  0.48834384    -0.80400
O1318       O  0.48596979  0.32397167  0.54325069    -0.80500
O1319       O  0.00780383  0.22481617  0.56148782    -0.80400
O1320       O  0.56891058  0.26997515  0.99361126    -0.80400
O1321       O  0.54264879  0.32601910  0.98697200    -0.80400
O1322       O  0.98156236  0.17898106  0.53179839    -0.80400
O1323       O  0.57643240  0.21748549  0.94246719    -0.80300
O1324       O  0.96447634  0.28175122  0.58960591    -0.80400
Co1325     Co  0.98449110  0.20621805  0.48313293     1.51500
Co1326     Co  0.48706675  0.31681998  0.98601584     1.51700
Co1327     Co  0.96915327  0.26175771  0.54333780     1.51600
Co1328     Co  0.53323780  0.24310438  0.96135606     1.51500
O1329       O  0.48796528  0.25966868  0.99068064    -1.42300
C1330       C  0.57065456  0.19008423  0.96543846     1.09200
C1331       C  0.97927493  0.31437420  0.58040979     1.09300
C1332       C  0.99893752  0.18995425  0.55960833     1.09300
C1333       C  0.57108944  0.30570142  0.99417857     1.09200
O1334       O  0.82288612  0.01816074  0.54000144    -0.80400
O1335       O  0.70035776  0.43533314  0.02091679    -0.80400
O1336       O  0.72037998  0.05519520  0.58892918    -0.80400
O1337       O  0.76999599  0.43689678  0.01144003    -0.80400
O1338       O  0.70160531  0.49838347  0.57199210    -0.80500
O1339       O  0.82116423  0.46343137  0.48812909    -0.80400
O1340       O  0.71477448  0.41384522  0.96629651    -0.80400
O1341       O  0.77216521  0.00037763  0.57179595    -0.80400
C1342       C  0.80807866  0.00348780  0.56911039     1.09300
C1343       C  0.69611340  0.41014021  0.99657070     1.09200
C1344       C  0.69935346  0.02639928  0.59665021     1.09300
C1345       C  0.80484470  0.43534246  0.00420277     1.09200
O1346       O  0.79283531  0.01829012  0.93308463    -0.80400
O1347       O  0.66384450  0.04148398  0.01389402    -0.80500
O1348       O  0.78268218  0.07723983  0.54521529    -0.80400
O1349       O  0.70792822  0.48467317  0.93222382    -0.80400
O1350       O  0.66193201  0.48580039  0.97124864    -0.80400
O1351       O  0.79725307  0.07514090  0.48723204    -0.80400
O1352       O  0.77930206  0.45834044  0.93299848    -0.80300
O1353       O  0.71392522  0.08042934  0.51795844    -0.80400
Co1354     Co  0.80370921  0.01942407  0.48870039     1.51500
Co1355     Co  0.68934059  0.49220037  0.01750222     1.51700
Co1356     Co  0.74070061  0.03866670  0.54396676     1.51600
Co1357     Co  0.73826231  0.46229980  0.97326384     1.51500
O1358       O  0.74573611  0.01015173  0.99490061    -1.42300
C1359       C  0.79677208  0.48702552  0.91774829     1.09200
C1360       C  0.67899198  0.07640941  0.51277444     1.09300
C1361       C  0.79851110  0.09224659  0.51683738     1.09300
C1362       C  0.67271780  0.48649079  0.93850280     1.09200
C1363       C  0.83395460  0.38123581  0.97514566    -0.12500
C1364       C  0.82480303  0.39882177  0.00761027     0.04500
C1365       C  0.83987345  0.38466290  0.54138978    -0.07800
C1366       C  0.86539550  0.35409435  0.54132273    -0.08500
C1367       C  0.87583678  0.33702731  0.50866477    -0.03100
C1368       C  0.85808990  0.35010909  0.97493256     0.03700
N1369       N  0.86741051  0.33412525  0.94077355     0.66200
H1370       H  0.82339706  0.39270924  0.94939501     0.15100
H1371       H  0.87890006  0.34514383  0.56656371     0.14800
N1372       N  0.83085257  0.40211492  0.57503721     0.73900
O1373       O  0.84788575  0.30656096  0.93018133    -0.39500
O1374       O  0.88917129  0.35214290  0.91825988    -0.39500
O1375       O  0.79697688  0.41120398  0.58234925    -0.40200
O1376       O  0.85577570  0.40455316  0.59926921    -0.40200
C1377       C  0.82724556  0.14860263  0.98429374    -0.12500
C1378       C  0.82109311  0.12776784  0.51863713     0.04500
C1379       C  0.83956285  0.13782207  0.55092835    -0.07800
C1380       C  0.86626742  0.16770465  0.54975035    -0.08500
C1381       C  0.87541947  0.18765569  0.51676621    -0.03100
C1382       C  0.85396810  0.17835741  0.98359336     0.03700
N1383       N  0.86003604  0.20012618  0.95024072     0.66200
H1384       H  0.81246737  0.14243025  0.95943179     0.15100
H1385       H  0.88216649  0.17308399  0.57416160     0.17500
N1386       N  0.83485180  0.11544175  0.58413305     0.73900
O1387       O  0.88012692  0.18683294  0.92505008    -0.39500
O1388       O  0.83859892  0.22770498  0.94298789    -0.39500
O1389       O  0.85684193  0.08810489  0.59074244    -0.40200
O1390       O  0.81272164  0.12631394  0.60896037    -0.40200
C1391       C  0.60435936  0.35866829  0.02206046    -0.12500
C1392       C  0.60708583  0.32595836  0.00186677     0.04500
C1393       C  0.64232626  0.31774342  0.98488115    -0.07800
C1394       C  0.67255179  0.34436736  0.98536382    -0.08500
C1395       C  0.66871916  0.37825847  0.00379115    -0.03100
C1396       C  0.63508811  0.38384225  0.02457850     0.03700
N1397       N  0.63067256  0.41610547  0.04663653     0.66200
H1398       H  0.57750999  0.36550306  0.03507224     0.15100
H1399       H  0.69834878  0.33945028  0.96968662     0.14800
N1400       N  0.64687388  0.28459900  0.96418724     0.73900
O1401       O  0.60511909  0.43995113  0.03944537    -0.39500
O1402       O  0.64691404  0.41782991  0.57738742    -0.39500
O1403       O  0.62783081  0.28080414  0.93563638    -0.40200
O1404       O  0.67470090  0.26310048  0.97034994    -0.40200
C1405       C  0.62190669  0.09605787  0.97337568    -0.12500
C1406       C  0.65475059  0.10795162  0.49924115     0.04500
C1407       C  0.66122982  0.14623109  0.50741703    -0.07800
C1408       C  0.63510309  0.17404287  0.49589285    -0.08500
C1409       C  0.60030507  0.16131817  0.97276629    -0.03100
C1410       C  0.59529666  0.12341530  0.96273049     0.03700
N1411       N  0.56312442  0.11182600  0.94220158     0.66200
H1412       H  0.61702591  0.06699312  0.96602599     0.15100
H1413       H  0.63909083  0.20295502  0.50393085     0.14800
N1414       N  0.69292000  0.15697958  0.52890008     0.73900
O1415       O  0.56855511  0.09460411  0.91311071    -0.39500
O1416       O  0.54302331  0.09075222  0.45544689    -0.39500
O1417       O  0.72343323  0.16179675  0.00800252    -0.40200
O1418       O  0.68801638  0.16244897  0.56243378    -0.40200
C1419       C  0.88970837  0.47821822  0.86467277    -0.12500
C1420       C  0.87664589  0.00038233  0.83060643     0.04500
C1421       C  0.84706255  0.02682476  0.83340923    -0.07800
C1422       C  0.81722637  0.02000322  0.85909523    -0.08500
C1423       C  0.82394847  0.48378576  0.88630779    -0.03100
C1424       C  0.86229093  0.47417239  0.89274607     0.03700
N1425       N  0.87535397  0.46522672  0.92875994     0.66200
H1426       H  0.91890072  0.47137642  0.87123263     0.15100
H1427       H  0.79647105  0.04192119  0.86297293     0.14800
N1428       N  0.84885041  0.06233020  0.81311520     0.73900
O1429       O  0.89210034  0.43428570  0.93489028    -0.39500
O1430       O  0.87205079  0.91511915  0.91588896    -0.39500
O1431       O  0.81483276  0.49937559  0.76596764    -0.40200
O1432       O  0.87531967  0.08583646  0.81877573    -0.40200
C1433       C  0.65381570  0.49029816  0.87196250    -0.12500
C1434       C  0.64328965  0.48665412  0.90920855     0.04500
C1435       C  0.60402016  0.48069653  0.91819277    -0.07800
C1436       C  0.57703449  0.47849432  0.89078287    -0.08500
C1437       C  0.58717097  0.48240976  0.85370878    -0.03100
C1438       C  0.62626823  0.48830375  0.84432634     0.03700
N1439       N  0.63130796  0.01476551  0.81140113     0.66200
H1440       H  0.67890086  0.00792840  0.86688084     0.15100
H1441       H  0.54755693  0.47332742  0.89901360     0.14800
N1442       N  0.59063883  0.47505449  0.95509863     0.73900
O1443       O  0.62021762  0.04766522  0.80251835    -0.39500
O1444       O  0.64908742  0.46308030  0.79063175    -0.39500
O1445       O  0.58174619  0.50339414  0.97311398    -0.40200
O1446       O  0.57875352  0.44258715  0.96597241    -0.40200
C1447       C  0.67023924  0.49112016  0.64382117    -0.12500
C1448       C  0.67429186  0.02471941  0.62927326     0.04500
C1449       C  0.65020035  0.05508704  0.63725717    -0.07800
C1450       C  0.61905882  0.04906781  0.66136356    -0.08500
C1451       C  0.61411123  0.51462097  0.67511228    -0.03100
C1452       C  0.64041519  0.48527633  0.66907414     0.03700
N1453       N  0.63528108  0.44812943  0.68558373     0.66200
H1454       H  0.68812608  0.46742929  0.63738196     0.15100
H1455       H  0.59934040  0.07190641  0.66559451     0.14800
N1456       N  0.65518316  0.09130021  0.61893442     0.73900
O1457       O  0.61552766  0.42389917  0.66970042    -0.39500
O1458       O  0.65663747  0.43738722  0.71126208    -0.39500
O1459       O  0.63342123  0.60533649  0.59316801    -0.40200
O1460       O  0.67958767  0.11435062  0.63036400    -0.40200
C1461       C  0.84962739  0.99346461  0.66498972    -0.12500
C1462       C  0.88868635  0.99000983  0.65675090     0.04500
C1463       C  0.89995238  0.98639910  0.61990920    -0.07800
C1464       C  0.87274703  0.98826477  0.59228853    -0.08500
C1465       C  0.83383949  0.99351818  0.60016291    -0.03100
C1466       C  0.82218634  0.99437197  0.63724861     0.03700
N1467       N  0.78463393  0.50367080  0.64381225     0.66200
H1468       H  0.84153556  0.50004304  0.69011903     0.15100
H1469       H  0.88256588  0.98734680  0.56414371     0.14800
N1470       N  0.93928993  0.98498680  0.60942994     0.73900
O1471       O  0.76358263  0.47540414  0.65256623    -0.39500
O1472       O  0.77133850  0.02742821  0.66154050    -0.39500
O1473       O  0.95272925  0.95396639  0.59972037    -0.40200
O1474       O  0.95640410  0.01540034  0.59945933    -0.40200
C1475       C  0.51596276  0.12972042  0.83573666    -0.12500
C1476       C  0.99126622  0.10014581  0.83769765     0.04500
C1477       C  0.97726901  0.08825677  0.87264717    -0.07800
C1478       C  0.97442351  0.11403319  0.90031409    -0.08500
C1479       C  0.48602460  0.15674334  0.88947231    -0.03100
C1480       C  0.51641443  0.15631017  0.86349084     0.03700
N1481       N  0.54841428  0.18164530  0.86560755     0.66200
H1482       H  0.53970408  0.12891193  0.81650589     0.15100
H1483       H  0.96393773  0.10356309  0.92687198     0.14800
N1484       N  0.96474120  0.05012577  0.88055096     0.73900
O1485       O  0.58154655  0.16856719  0.86892868    -0.39500
O1486       O  0.54443839  0.21642653  0.85752743    -0.39500
O1487       O  0.98872312  0.02618247  0.89163796    -0.40200
O1488       O  0.92974521  0.04358827  0.88695650    -0.40200
C1489       C  0.53898627  0.36781349  0.82751677    -0.12500
C1490       C  0.50277203  0.38068301  0.81639498     0.04500
C1491       C  0.97652633  0.36939240  0.83330937    -0.07800
C1492       C  0.97757708  0.34298970  0.86288553    -0.08500
C1493       C  0.51018685  0.32512719  0.87395574    -0.03100
C1494       C  0.54295408  0.34033147  0.85591474     0.03700
N1495       N  0.58029788  0.33088440  0.86819126     0.66200
H1496       H  0.56471234  0.38080186  0.81559598     0.15100
H1497       H  0.95118116  0.33575829  0.87740316     0.14800
N1498       N  0.94065035  0.38517950  0.82309320     0.73900
O1499       O  0.59332559  0.29841500  0.86286276    -0.39500
O1500       O  0.60195524  0.35624551  0.88006482    -0.39500
O1501       O  0.92842415  0.38110362  0.79128116    -0.40200
O1502       O  0.91878457  0.39809992  0.84711680    -0.40200
C1503       C  0.53383075  0.38328300  0.63275707    -0.12500
C1504       C  0.50421323  0.40031187  0.65174024     0.04500
C1505       C  0.96315288  0.38559971  0.65294270    -0.07800
C1506       C  0.95713697  0.35655483  0.62850449    -0.08500
C1507       C  0.98767317  0.34132712  0.60905097    -0.03100
C1508       C  0.52696169  0.35165333  0.61155763     0.03700
N1509       N  0.55890616  0.33058776  0.59800626     0.66200
H1510       H  0.56255006  0.39439564  0.63499199     0.15100
H1511       H  0.92848910  0.34577721  0.62461897     0.14800
N1512       N  0.93168690  0.39836581  0.67448168     0.73900
O1513       O  0.59258650  0.34181541  0.60356563    -0.39500
O1514       O  0.55413458  0.29798217  0.58583186    -0.39500
O1515       O  0.89919320  0.40177432  0.66057906    -0.40200
O1516       O  0.93456473  0.39939973  0.70869948    -0.40200
C1517       C  0.99536749  0.17287879  0.62647523    -0.12500
C1518       C  0.00419684  0.16241949  0.59079400     0.04500
C1519       C  0.51065041  0.12455301  0.58598731    -0.07800
C1520       C  0.50436985  0.09690512  0.61405699    -0.08500
C1521       C  0.99503438  0.10643660  0.64843035    -0.03100
C1522       C  0.99078158  0.14538637  0.65521516     0.03700
N1523       N  0.97989675  0.15747468  0.69056141     0.66200
H1524       H  0.98966524  0.20225832  0.63168255     0.15100
H1525       H  0.51221559  0.06799652  0.60906776     0.14800
N1526       N  0.52693354  0.11355803  0.55212604     0.73900
O1527       O  0.00524178  0.16540098  0.71318824    -0.39500
O1528       O  0.94556932  0.16539760  0.69722171    -0.39500
O1529       O  0.56201085  0.11936369  0.54567976    -0.40200
O1530       O  0.50798597  0.09283482  0.53160041    -0.40200
O1531       O  0.98194678  0.54055980  0.16478157    -0.80400
O1532       O  0.51880007  0.97902445  0.34033256    -0.80400
O1533       O  0.95937086  0.57629893  0.28441411    -0.80400
O1534       O  0.57888188  0.98155763  0.22427876    -0.80400
O1535       O  0.51130661  0.54982879  0.30460887    -0.80500
O1536       O  0.55070684  0.52121604  0.19200996    -0.80400
O1537       O  0.56167765  0.98287358  0.29513625    -0.80400
O1538       O  0.97442183  0.58175199  0.20813688    -0.80400
C1539       C  0.98240744  0.57459562  0.17507929     1.09300
C1540       C  0.55367078  0.98118837  0.32986198     1.09200
C1541       C  0.98830840  0.57461605  0.30465514     1.09300
C1542       C  0.57888471  0.00612338  0.19922793     1.09200
O1543       O  0.00896270  0.96750904  0.15555121    -0.80400
O1544       O  0.94474006  0.00571462  0.32137589    -0.80500
O1545       O  0.91522502  0.52694521  0.19853370    -0.80400
O1546       O  0.52958795  0.92312764  0.27391553    -0.80400
O1547       O  0.47476251  0.93931177  0.29387864    -0.80400
O1548       O  0.94352818  0.47283529  0.18990942    -0.80400
O1549       O  0.51856792  0.93309760  0.20894939    -0.80300
O1550       O  0.90661602  0.51581427  0.27332205    -0.80400
Co1551     Co  0.99591170  0.49453290  0.19481154     1.51500
Co1552     Co  0.49385156  0.99390416  0.29619446     1.51700
Co1553     Co  0.94196063  0.54782282  0.24138188     1.51600
Co1554     Co  0.53057752  0.97209001  0.24854371     1.51500
O1555       O  0.49097162  0.51367690  0.24202133    -1.42300
C1556       C  0.51307083  0.93410994  0.17397421     1.09200
C1557       C  0.91197953  0.50469390  0.30620375     1.09300
C1558       C  0.91629201  0.49530602  0.18349524     1.09300
C1559       C  0.50034360  0.91425389  0.29206116     1.09200
O1560       O  0.92959172  0.71374276  0.98074597    -0.80400
O1561       O  0.48427742  0.81462345  0.43246972    -0.80400
O1562       O  0.92178869  0.79339795  0.03431948    -0.80400
O1563       O  0.50296986  0.71225464  0.42333197    -0.80400
O1564       O  0.93192944  0.82082510  0.47921199    -0.80500
O1565       O  0.97993124  0.66110967  0.45654817    -0.80400
O1566       O  0.53733478  0.78457620  0.42105610    -0.80400
O1567       O  0.92597426  0.72179730  0.04058485    -0.80400
C1568       C  0.91125057  0.71016545  0.01101502     1.09300
C1569       C  0.51041609  0.80603605  0.41065143     1.09200
C1570       C  0.91053313  0.81307699  0.00745430     1.09300
C1571       C  0.49035973  0.67734746  0.42430866     1.09200
O1572       O  0.54047927  0.69026933  0.98755441    -0.80400
O1573       O  0.48675659  0.82388257  0.04623626    -0.80500
O1574       O  0.00699627  0.72354220  0.06022709    -0.80400
O1575       O  0.56837503  0.77156157  0.49341562    -0.80400
O1576       O  0.54123656  0.82700638  0.48573548    -0.80400
O1577       O  0.98102390  0.67833127  0.02959889    -0.80400
O1578       O  0.57724749  0.71944523  0.44212096    -0.80300
O1579       O  0.96429120  0.78070337  0.08866244    -0.80400
Co1580     Co  0.98514044  0.70649388  0.98138585     1.51500
Co1581     Co  0.48586795  0.81661131  0.48550392     1.51700
Co1582     Co  0.96873841  0.76079841  0.04236016     1.51600
Co1583     Co  0.53341029  0.74377243  0.46130003     1.51500
O1584       O  0.48774549  0.75953076  0.49047226    -1.42300
C1585       C  0.57278080  0.69213210  0.46535396     1.09200
C1586       C  0.97944998  0.81320933  0.07951095     1.09300
C1587       C  0.99763780  0.68888656  0.05798889     1.09300
C1588       C  0.56997832  0.80731807  0.49332556     1.09200
O1589       O  0.82327046  0.51815555  0.03747771    -0.80400
O1590       O  0.69900191  0.93650295  0.52401398    -0.80400
O1591       O  0.71889714  0.55397832  0.08509160    -0.80400
O1592       O  0.76856927  0.93764993  0.51348859    -0.80400
O1593       O  0.69965508  0.99639178  0.07235399    -0.80500
O1594       O  0.82068424  0.96226302  0.98640258    -0.80400
O1595       O  0.71273871  0.91610898  0.46869836    -0.80400
O1596       O  0.77205995  0.50033166  0.06861219    -0.80400
C1597       C  0.80800263  0.50373144  0.06646548     1.09300
C1598       C  0.69453278  0.91183164  0.49915577     1.09200
C1599       C  0.69911824  0.52443349  0.09359838     1.09300
C1600       C  0.80328814  0.93606045  0.50562306     1.09200
O1601       O  0.79510432  0.51749001  0.43255296    -0.80400
O1602       O  0.66529991  0.54359741  0.51404147    -0.80500
O1603       O  0.78201430  0.57708958  0.04114728    -0.80400
O1604       O  0.70539297  0.98739499  0.43601614    -0.80400
O1605       O  0.65985940  0.98721852  0.47550591    -0.80400
O1606       O  0.79783715  0.57391161  0.98345079    -0.80400
O1607       O  0.77658798  0.96051197  0.43557422    -0.80300
O1608       O  0.71331318  0.57945087  0.01366012    -0.80400
Co1609     Co  0.80490970  0.51834318  0.98585619     1.51500
Co1610     Co  0.68847418  0.99353891  0.52127305     1.51700
Co1611     Co  0.74038314  0.53795742  0.04015002     1.51600
Co1612     Co  0.73632091  0.96408075  0.47631303     1.51500
O1613       O  0.74706933  0.51154851  0.49443968    -1.42300
C1614       C  0.79398984  0.98932392  0.42062897     1.09200
C1615       C  0.67836491  0.57515316  0.00861671     1.09300
C1616       C  0.79838195  0.59160860  0.01274435     1.09300
C1617       C  0.67017956  0.98860705  0.44262266     1.09200
C1618       C  0.83141536  0.88174162  0.47567036    -0.12500
C1619       C  0.82334766  0.89952372  0.50830894     0.04500
C1620       C  0.84249602  0.88611940  0.04139110    -0.07800
C1621       C  0.86816037  0.85568027  0.04122771    -0.08500
C1622       C  0.87560389  0.83618590  0.00923187    -0.03100
C1623       C  0.85642416  0.85125879  0.47471323     0.03700
N1624       N  0.86470828  0.83517083  0.44038551     0.66200
H1625       H  0.81957600  0.89278556  0.45030275     0.15100
H1626       H  0.88380185  0.84838741  0.06566440     0.14800
N1627       N  0.83450865  0.90435889  0.07491013     0.73900
O1628       O  0.84330509  0.80915466  0.42945014    -0.39500
O1629       O  0.88681892  0.85265489  0.41781367    -0.39500
O1630       O  0.80119822  0.91546191  0.08180307    -0.40200
O1631       O  0.85848434  0.90327007  0.10021828    -0.40200
C1632       C  0.82989698  0.64851113  0.47977175    -0.12500
C1633       C  0.82094156  0.62724902  0.01417649     0.04500
C1634       C  0.83791205  0.63857298  0.04677323    -0.07800
C1635       C  0.86458175  0.66848134  0.04567791    -0.08500
C1636       C  0.87557526  0.68701281  0.01244271    -0.03100
C1637       C  0.85602314  0.67875571  0.47886874     0.03700
N1638       N  0.86492544  0.69763180  0.44446221     0.66200
H1639       H  0.81776653  0.63982467  0.45436739     0.15100
H1640       H  0.87909420  0.67491878  0.07060613     0.17500
N1641       N  0.83187089  0.61732675  0.08045413     0.73900
O1642       O  0.88178152  0.68006723  0.41975957    -0.39500
O1643       O  0.85046281  0.72939786  0.43677691    -0.39500
O1644       O  0.85311188  0.58974309  0.08843151    -0.40200
O1645       O  0.80922717  0.62935014  0.10429143    -0.40200
C1646       C  0.60212099  0.86081528  0.52125272    -0.12500
C1647       C  0.60552730  0.82821686  0.50098906     0.04500
C1648       C  0.64113327  0.82023149  0.48456733    -0.07800
C1649       C  0.67140963  0.84655943  0.48660036    -0.08500
C1650       C  0.66716223  0.87997597  0.50566675    -0.03100
C1651       C  0.63287744  0.88559449  0.52534915     0.03700
N1652       N  0.62798660  0.91738821  0.54798248     0.66200
H1653       H  0.57486619  0.86763380  0.53346570     0.15100
H1654       H  0.69758798  0.84198374  0.47139090     0.14800
N1655       N  0.64598825  0.78804178  0.46253295     0.73900
O1656       O  0.60089092  0.93990836  0.54231463    -0.39500
O1657       O  0.64837785  0.91646863  0.07763031    -0.39500
O1658       O  0.62495387  0.78385843  0.43536533    -0.40200
O1659       O  0.67567261  0.76843069  0.46564402    -0.40200
C1660       C  0.62232453  0.59774310  0.47463232    -0.12500
C1661       C  0.65348557  0.60676569  0.99565433     0.04500
C1662       C  0.66022806  0.64517932  0.00330073    -0.07800
C1663       C  0.63379489  0.67305141  0.99226773    -0.08500
C1664       C  0.60288273  0.66363849  0.47143700    -0.03100
C1665       C  0.59630605  0.62543246  0.46354198     0.03700
N1666       N  0.56351826  0.61406258  0.44384428     0.66200
H1667       H  0.61631788  0.56870658  0.46874810     0.15100
H1668       H  0.63814841  0.70196849  0.00002095     0.14800
N1669       N  0.69262834  0.65608692  0.02374932     0.73900
O1670       O  0.56780867  0.60471200  0.41120028    -0.39500
O1671       O  0.54018984  0.58958515  0.95580193    -0.39500
O1672       O  0.72558633  0.67072549  0.49759204    -0.40200
O1673       O  0.69093624  0.65439732  0.05818668    -0.40200
C1674       C  0.88667576  0.98069882  0.36799886    -0.12500
C1675       C  0.87923351  0.49307969  0.33088473     0.04500
C1676       C  0.84083515  0.50261641  0.32404550    -0.07800
C1677       C  0.81290701  0.49708885  0.35196736    -0.08500
C1678       C  0.82102932  0.98633913  0.38935243    -0.03100
C1679       C  0.85919364  0.97608827  0.39576317     0.03700
N1680       N  0.87220174  0.96611037  0.43155110     0.66200
H1681       H  0.91569561  0.97300960  0.37436760     0.15100
H1682       H  0.78409415  0.50661713  0.34720843     0.14800
N1683       N  0.83004709  0.51963568  0.28978854     0.73900
O1684       O  0.88816986  0.93462999  0.43691270    -0.39500
O1685       O  0.88204237  0.48594364  0.44909636    -0.39500
O1686       O  0.81328568  0.00455125  0.26915536    -0.40200
O1687       O  0.82663254  0.55510684  0.28636905    -0.40200
C1688       C  0.65074362  0.99424551  0.37632448    -0.12500
C1689       C  0.64043791  0.98871743  0.41346851     0.04500
C1690       C  0.60133507  0.98100037  0.42225945    -0.07800
C1691       C  0.57446163  0.97832999  0.39460653    -0.08500
C1692       C  0.58450288  0.98396974  0.35761742    -0.03100
C1693       C  0.62327417  0.99262174  0.34857063     0.03700
N1694       N  0.63677948  0.49844832  0.30739331     0.66200
H1695       H  0.68277609  0.49731740  0.36418610     0.15100
H1696       H  0.54511729  0.97180309  0.40250104     0.14800
N1697       N  0.58801395  0.97461297  0.45914435     0.73900
O1698       O  0.63700618  0.53100975  0.29187763    -0.39500
O1699       O  0.65891329  0.97962414  0.29640930    -0.39500
O1700       O  0.58310038  0.00256057  0.47898078    -0.40200
O1701       O  0.57251322  0.94317833  0.46853078    -0.40200
C1702       C  0.66970885  0.99026343  0.14580466    -0.12500
C1703       C  0.67554056  0.52152526  0.12749426     0.04500
C1704       C  0.65285348  0.55195630  0.13812351    -0.07800
C1705       C  0.62320354  0.54557374  0.16385046    -0.08500
C1706       C  0.61400339  0.01402580  0.17745833    -0.03100
C1707       C  0.64089698  0.98503340  0.17225156     0.03700
N1708       N  0.63736593  0.94877685  0.19099811     0.66200
H1709       H  0.68812777  0.96677882  0.14005144     0.15100
H1710       H  0.60423709  0.56864258  0.16959577     0.14800
N1711       N  0.65674997  0.58847841  0.12015272     0.73900
O1712       O  0.61435152  0.92433048  0.17965839    -0.39500
O1713       O  0.66178135  0.93894784  0.21433527    -0.39500
O1714       O  0.63136231  0.09373053  0.08326486    -0.40200
O1715       O  0.67806172  0.61325776  0.13345347    -0.40200
C1716       C  0.84881831  0.49588448  0.16265784    -0.12500
C1717       C  0.88729189  0.48795306  0.15518059     0.04500
C1718       C  0.89810377  0.48093869  0.11877056    -0.07800
C1719       C  0.87114663  0.48386827  0.09083087    -0.08500
C1720       C  0.83313315  0.49387437  0.09798936    -0.03100
C1721       C  0.82182277  0.49867426  0.13465810     0.03700
N1722       N  0.78206777  0.00445387  0.14444913     0.66200
H1723       H  0.83837808  0.00049445  0.19132678     0.15100
H1724       H  0.88059490  0.48013609  0.06291516     0.14800
N1725       N  0.93709212  0.47521819  0.10878714     0.73900
O1726       O  0.76078535  0.97684122  0.15469234    -0.39500
O1727       O  0.77629112  0.54487155  0.14284266    -0.39500
O1728       O  0.94659875  0.44387506  0.09636633    -0.40200
O1729       O  0.95860073  0.50374757  0.10258570    -0.40200
C1730       C  0.51576978  0.63232956  0.33435955    -0.12500
C1731       C  0.99053346  0.60106774  0.33506232     0.04500
C1732       C  0.97709527  0.58918601  0.37024210    -0.07800
C1733       C  0.97417320  0.61498058  0.39790825    -0.08500
C1734       C  0.48803740  0.65557853  0.39073225    -0.03100
C1735       C  0.51579198  0.65872904  0.36218977     0.03700
N1736       N  0.54511582  0.68724550  0.36200216     0.66200
H1737       H  0.53755955  0.63425557  0.31303585     0.15100
H1738       H  0.96413637  0.60439407  0.42458161     0.14800
N1739       N  0.96560097  0.55090092  0.37867027     0.73900
O1740       O  0.57869736  0.67828742  0.37025863    -0.39500
O1741       O  0.53904768  0.71951887  0.34737933    -0.39500
O1742       O  0.99055205  0.52759203  0.38893120    -0.40200
O1743       O  0.93116406  0.54407370  0.38738250    -0.40200
C1744       C  0.53753766  0.86626107  0.32675737    -0.12500
C1745       C  0.50130467  0.87889686  0.31547046     0.04500
C1746       C  0.96523946  0.86504985  0.33425489    -0.07800
C1747       C  0.96941256  0.83719619  0.36216842    -0.08500
C1748       C  0.50878105  0.82422159  0.37353131    -0.03100
C1749       C  0.54154524  0.83907106  0.35528110     0.03700
N1750       N  0.57894390  0.82958995  0.36741361     0.66200
H1751       H  0.56329817  0.87930444  0.31496994     0.15100
H1752       H  0.94433017  0.82803375  0.37791301     0.14800
N1753       N  0.92835655  0.88003532  0.32725671     0.73900
O1754       O  0.59157983  0.79686575  0.36257712    -0.39500
O1755       O  0.60126373  0.85522527  0.37770439    -0.39500
O1756       O  0.90787775  0.86563976  0.30332089    -0.40200
O1757       O  0.91364589  0.90227366  0.34935641    -0.40200
C1758       C  0.53523615  0.88193979  0.13579535    -0.12500
C1759       C  0.50577499  0.89848688  0.15541694     0.04500
C1760       C  0.96717833  0.88442192  0.15226496    -0.07800
C1761       C  0.95968800  0.85553213  0.12813067    -0.08500
C1762       C  0.98926975  0.83954165  0.10814829    -0.03100
C1763       C  0.52821004  0.85047093  0.11434572     0.03700
N1764       N  0.56010285  0.83007455  0.09979048     0.66200
H1765       H  0.56385893  0.89343623  0.13757462     0.15100
H1766       H  0.93067992  0.84528634  0.12507657     0.14800
N1767       N  0.93700884  0.89680665  0.17566313     0.73900
O1768       O  0.59378372  0.84148354  0.10504655    -0.39500
O1769       O  0.55539664  0.79779347  0.08688096    -0.39500
O1770       O  0.90345564  0.89926164  0.16393824    -0.40200
O1771       O  0.94229897  0.89806747  0.20958358    -0.40200
C1772       C  0.99097616  0.67192600  0.12467806    -0.12500
C1773       C  0.00134633  0.66136298  0.08938001     0.04500
C1774       C  0.51196963  0.62617901  0.08474204    -0.07800
C1775       C  0.50784930  0.59913790  0.11344571    -0.08500
C1776       C  0.99149944  0.60572445  0.14721767    -0.03100
C1777       C  0.98597791  0.64460033  0.15350956     0.03700
N1778       N  0.97340745  0.65672234  0.18835643     0.66200
H1779       H  0.98461528  0.70126028  0.12948031     0.15100
H1780       H  0.51413934  0.56997565  0.10791280     0.14800
N1781       N  0.52451869  0.61435210  0.04979937     0.73900
O1782       O  0.99751253  0.66301035  0.21265215    -0.39500
O1783       O  0.93919091  0.66629130  0.19302939    -0.39500
O1784       O  0.55951726  0.61661813  0.04141413    -0.40200
O1785       O  0.50236052  0.59515248  0.03077655    -0.40200
O1786       O  0.98610484  0.54598922  0.66520178    -0.80400
O1787       O  0.51849743  0.98668237  0.84018949    -0.80400
O1788       O  0.95827807  0.57927273  0.78437464    -0.80400
O1789       O  0.57571465  0.97957960  0.72345471    -0.80400
O1790       O  0.51227469  0.54825628  0.80321598    -0.80500
O1791       O  0.54752723  0.52296914  0.68991549    -0.80400
O1792       O  0.56003052  0.98313410  0.79388510    -0.80400
O1793       O  0.97410704  0.58714156  0.70825544    -0.80400
C1794       C  0.98429321  0.58004038  0.67558001     1.09300
C1795       C  0.55289667  0.98498488  0.82868662     1.09200
C1796       C  0.98670215  0.57891191  0.80512351     1.09300
C1797       C  0.57686514  0.00571350  0.69986500     1.09200
O1798       O  0.01087234  0.96593538  0.65619847    -0.80400
O1799       O  0.94358618  0.00142769  0.82091415    -0.80500
O1800       O  0.91724885  0.53263016  0.69713226    -0.80400
O1801       O  0.52621941  0.92257936  0.77447296    -0.80400
O1802       O  0.47436411  0.94259439  0.79803153    -0.80400
O1803       O  0.94513447  0.47875505  0.69071497    -0.80400
O1804       O  0.51629467  0.93201095  0.70837343    -0.80300
O1805       O  0.90879222  0.51651622  0.77184595    -0.80400
Co1806     Co  0.99866210  0.49946976  0.69498371     1.51500
Co1807     Co  0.49296517  0.99772432  0.79588575     1.51700
Co1808     Co  0.94327859  0.55106766  0.74089867     1.51600
Co1809     Co  0.52748102  0.97082469  0.74827978     1.51500
O1810       O  0.48462782  0.51004045  0.74399142    -1.42300
C1811       C  0.51277166  0.93368493  0.67314041     1.09200
C1812       C  0.91403020  0.50487041  0.80460093     1.09300
C1813       C  0.91833943  0.50096640  0.68284532     1.09300
C1814       C  0.49821592  0.91607258  0.79496373     1.09200
O1815       O  0.92884125  0.71394224  0.47977937    -0.80400
O1816       O  0.48507232  0.81789700  0.93562893    -0.80400
O1817       O  0.92039656  0.79480676  0.53190214    -0.80400
O1818       O  0.49793078  0.71161274  0.92476966    -0.80400
O1819       O  0.93227173  0.81757314  0.98074788    -0.80500
O1820       O  0.98125344  0.66198725  0.95592154    -0.80400
O1821       O  0.53430169  0.78326470  0.92086768    -0.80400
O1822       O  0.92525738  0.72333524  0.53931612    -0.80400
C1823       C  0.91036236  0.71138529  0.50995994     1.09300
C1824       C  0.50864050  0.80698454  0.91232447     1.09200
C1825       C  0.90964420  0.81541254  0.50544991     1.09300
C1826       C  0.48653818  0.67627740  0.92681327     1.09200
O1827       O  0.54172265  0.68941990  0.48490972    -0.80400
O1828       O  0.48668254  0.82381499  0.54329057    -0.80500
O1829       O  0.00697013  0.72692648  0.55797485    -0.80400
O1830       O  0.56793069  0.76968971  0.99233960    -0.80400
O1831       O  0.54201461  0.82603973  0.98931762    -0.80400
O1832       O  0.98075305  0.68029542  0.52961460    -0.80400
O1833       O  0.57330493  0.71708154  0.94124722    -0.80300
O1834       O  0.96290437  0.78210951  0.58656710    -0.80400
Co1835     Co  0.98425743  0.70677609  0.48051221     1.51500
Co1836     Co  0.48648047  0.81797691  0.98852353     1.51700
Co1837     Co  0.96773268  0.76287648  0.54001487     1.51600
Co1838     Co  0.53057675  0.74293487  0.96141250     1.51500
O1839       O  0.48607617  0.76051936  0.99180984    -1.42300
C1840       C  0.57043295  0.69150519  0.96645878     1.09200
C1841       C  0.97895910  0.81425258  0.57776767     1.09300
C1842       C  0.99786515  0.69215120  0.55721821     1.09300
C1843       C  0.57045627  0.80523261  0.99455755     1.09200
O1844       O  0.82437425  0.51914636  0.53645093    -0.80400
O1845       O  0.70015646  0.93422020  0.02184908    -0.80400
O1846       O  0.72078508  0.55658046  0.58365777    -0.80400
O1847       O  0.76994385  0.93582364  0.01103949    -0.80400
O1848       O  0.70031014  0.99765423  0.57586472    -0.80500
O1849       O  0.81937407  0.96454384  0.48977004    -0.80400
O1850       O  0.71389541  0.91271479  0.96701182    -0.80400
O1851       O  0.77366463  0.50190930  0.56858148    -0.80400
C1852       C  0.80960894  0.50540070  0.56593459     1.09300
C1853       C  0.69586024  0.90883915  0.99764039     1.09200
C1854       C  0.70028695  0.52760145  0.59215877     1.09300
C1855       C  0.80472866  0.93420260  0.00343143     1.09200
O1856       O  0.79551551  0.51844465  0.93284944    -0.80400
O1857       O  0.66407847  0.54262445  0.01464102    -0.80500
O1858       O  0.78313796  0.57784513  0.53976360    -0.80400
O1859       O  0.70645913  0.98372848  0.93290640    -0.80400
O1860       O  0.66051364  0.98340899  0.97199570    -0.80400
O1861       O  0.79880910  0.57417156  0.48212508    -0.80400
O1862       O  0.77733330  0.95804623  0.93232011    -0.80300
O1863       O  0.71500932  0.57975218  0.51183304    -0.80400
Co1864     Co  0.80543095  0.51836169  0.48520119     1.51500
Co1865     Co  0.68871930  0.99103665  0.01774687     1.51700
Co1866     Co  0.74175374  0.53887557  0.53935622     1.51600
Co1867     Co  0.73741090  0.96121498  0.97355852     1.51500
O1868       O  0.74633476  0.51147077  0.99464050    -1.42300
C1869       C  0.79305620  0.98753520  0.91675210     1.09200
C1870       C  0.68003367  0.57570255  0.50696102     1.09300
C1871       C  0.79910395  0.59228641  0.51123878     1.09300
C1872       C  0.67123342  0.98455359  0.93921780     1.09200
C1873       C  0.82812586  0.87492378  0.97836278    -0.12500
C1874       C  0.82484783  0.89774988  0.00852601     0.04500
C1875       C  0.83760230  0.88392153  0.54138428    -0.07800
C1876       C  0.86321249  0.85345895  0.54030793    -0.08500
C1877       C  0.87418841  0.83797758  0.50700295    -0.03100
C1878       C  0.85386464  0.84489447  0.97798023     0.03700
N1879       N  0.85778923  0.82403814  0.94547088     0.66200
H1880       H  0.81168409  0.88150196  0.95457643     0.15100
H1881       H  0.87637564  0.84334602  0.56534850     0.14800
N1882       N  0.82782847  0.89958061  0.57579402     0.73900
O1883       O  0.82945015  0.80564771  0.93440023    -0.39500
O1884       O  0.88546952  0.83125442  0.92374092    -0.39500
O1885       O  0.79396659  0.90916056  0.58250397    -0.40200
O1886       O  0.85174507  0.89952239  0.60115972    -0.40200
C1887       C  0.82932641  0.64801395  0.98152224    -0.12500
C1888       C  0.82070434  0.62847512  0.51257109     0.04500
C1889       C  0.83562905  0.64142442  0.54555562    -0.07800
C1890       C  0.86210359  0.67149948  0.54462385    -0.08500
C1891       C  0.87420266  0.68905663  0.51131433    -0.03100
C1892       C  0.85635728  0.67753861  0.98029874     0.03700
N1893       N  0.86518320  0.69625487  0.94579296     0.66200
H1894       H  0.81611848  0.64017004  0.95633389     0.15100
H1895       H  0.87548859  0.67893345  0.56984435     0.17500
N1896       N  0.82730731  0.62203975  0.57982490     0.73900
O1897       O  0.88667791  0.68039590  0.92326732    -0.39500
O1898       O  0.84528466  0.72385412  0.93495656    -0.39500
O1899       O  0.84873297  0.59586551  0.59128556    -0.40200
O1900       O  0.80161542  0.63421986  0.60060144    -0.40200
C1901       C  0.60447139  0.85714426  0.02335034    -0.12500
C1902       C  0.60681800  0.82484833  0.00250009     0.04500
C1903       C  0.64202510  0.81662600  0.98540428    -0.07800
C1904       C  0.67245841  0.84301947  0.98638335    -0.08500
C1905       C  0.66883396  0.87668971  0.00523615    -0.03100
C1906       C  0.63533669  0.88206869  0.02627167     0.03700
N1907       N  0.63067859  0.91453505  0.04803564     0.66200
H1908       H  0.57764780  0.86414615  0.03630066     0.15100
H1909       H  0.69817576  0.83826571  0.97053068     0.14800
N1910       N  0.64642163  0.78382744  0.96414410     0.73900
O1911       O  0.60417989  0.93747863  0.04130215    -0.39500
O1912       O  0.64592500  0.91869759  0.57750077    -0.39500
O1913       O  0.62604225  0.77968590  0.93649955    -0.40200
O1914       O  0.67519169  0.76317148  0.96869779    -0.40200
C1915       C  0.62117997  0.59764619  0.97547916    -0.12500
C1916       C  0.65559509  0.60719301  0.49326176     0.04500
C1917       C  0.66368413  0.64581374  0.49878562    -0.07800
C1918       C  0.63716424  0.67369169  0.48816510    -0.08500
C1919       C  0.60100067  0.66340287  0.97291745    -0.03100
C1920       C  0.59532623  0.62537680  0.96395990     0.03700
N1921       N  0.56346252  0.61438608  0.94285160     0.66200
H1922       H  0.61608952  0.56873703  0.96821800     0.15100
H1923       H  0.64262651  0.70281704  0.49424655     0.14800
N1924       N  0.69782571  0.65709393  0.51638503     0.73900
O1925       O  0.56383928  0.62250297  0.90900377    -0.39500
O1926       O  0.53390163  0.60304410  0.46135333    -0.39500
O1927       O  0.72093664  0.67203178  0.00758695    -0.40200
O1928       O  0.69897023  0.65676877  0.55078342    -0.40200
C1929       C  0.87420141  0.96649380  0.85175609    -0.12500
C1930       C  0.88114951  0.49427007  0.83010834     0.04500
C1931       C  0.84251391  0.50295977  0.82307373    -0.07800
C1932       C  0.81437886  0.49752848  0.85105775    -0.08500
C1933       C  0.81600976  0.98698683  0.88210390    -0.03100
C1934       C  0.84391641  0.95927236  0.87670428     0.03700
N1935       N  0.84322650  0.92434085  0.89754087     0.66200
H1936       H  0.89629288  0.94570981  0.84926099     0.15100
H1937       H  0.78536739  0.50612274  0.84579873     0.14800
N1938       N  0.83166493  0.51943578  0.78860083     0.73900
O1939       O  0.81924467  0.89915276  0.88962354    -0.39500
O1940       O  0.88127269  0.49207120  0.94972882    -0.39500
O1941       O  0.82186496  0.07188106  0.79247317    -0.40200
O1942       O  0.83411545  0.55485842  0.78284968    -0.40200
C1943       C  0.65039685  0.99753878  0.87389363    -0.12500
C1944       C  0.64179901  0.98454920  0.90996971     0.04500
C1945       C  0.60396887  0.97179579  0.91824949    -0.07800
C1946       C  0.57612737  0.97264111  0.89144300    -0.08500
C1947       C  0.58438165  0.98566416  0.85561095    -0.03100
C1948       C  0.62201131  0.99856547  0.84686784     0.03700
N1949       N  0.63863372  0.49199446  0.80700819     0.66200
H1950       H  0.68356576  0.49443755  0.86418027     0.15100
H1951       H  0.54775579  0.96201051  0.89875594     0.14800
N1952       N  0.59348244  0.95563320  0.95338215     0.73900
O1953       O  0.64379078  0.52447819  0.79197295    -0.39500
O1954       O  0.65422307  0.99823289  0.79070187    -0.39500
O1955       O  0.57074667  0.97306078  0.97354839    -0.40200
O1956       O  0.59904575  0.92085209  0.95998755    -0.40200
C1957       C  0.66903280  0.98991506  0.64829010    -0.12500
C1958       C  0.67556457  0.52605579  0.62507295     0.04500
C1959       C  0.65176156  0.55650567  0.63359484    -0.07800
C1960       C  0.62062616  0.55032048  0.65780466    -0.08500
C1961       C  0.61264162  0.01358092  0.67898925    -0.03100
C1962       C  0.63911897  0.98423217  0.67349449     0.03700
N1963       N  0.63418754  0.94730251  0.69060219     0.66200
H1964       H  0.68695956  0.96620445  0.64207806     0.15100
H1965       H  0.60112313  0.57322019  0.66251569     0.14800
N1966       N  0.65728173  0.59306682  0.61602348     0.73900
O1967       O  0.61245876  0.92343124  0.67649226    -0.39500
O1968       O  0.65676344  0.93637858  0.71521903    -0.39500
O1969       O  0.63111158  0.10256095  0.59583519    -0.40200
O1970       O  0.68282155  0.61507415  0.62716604    -0.40200
C1971       C  0.85088717  0.49660082  0.66214108    -0.12500
C1972       C  0.89001731  0.49297199  0.65422199     0.04500
C1973       C  0.90158800  0.48963446  0.61745156    -0.07800
C1974       C  0.87452740  0.49142841  0.58963185    -0.08500
C1975       C  0.83550166  0.49668850  0.59723962    -0.03100
C1976       C  0.82368210  0.49802907  0.63421529     0.03700
N1977       N  0.78288716  0.99772855  0.64717786     0.66200
H1978       H  0.84045411  0.99645937  0.69309137     0.15100
H1979       H  0.88453925  0.49037202  0.56156046     0.14800
N1980       N  0.94105411  0.48862853  0.60731492     0.73900
O1981       O  0.76147949  0.96872522  0.64760127    -0.39500
O1982       O  0.77324771  0.53657450  0.64992965    -0.39500
O1983       O  0.95482782  0.45799602  0.59695220    -0.40200
O1984       O  0.95841026  0.51935070  0.59891066    -0.40200
C1985       C  0.49794765  0.64042444  0.82951968    -0.12500
C1986       C  0.98767073  0.60640027  0.83426955     0.04500
C1987       C  0.96190825  0.60160490  0.86398889    -0.07800
C1988       C  0.96268522  0.62651132  0.89236635    -0.08500
C1989       C  0.48442150  0.65279448  0.89382508    -0.03100
C1990       C  0.49515616  0.66608322  0.85805005     0.03700
N1991       N  0.50255723  0.70543445  0.85003529     0.66200
H1992       H  0.50531108  0.65104550  0.80211455     0.15100
H1993       H  0.94325064  0.62128906  0.91538870     0.14800
N1994       N  0.93538636  0.57061148  0.86648900     0.73900
O1995       O  0.53622857  0.71710075  0.84345728    -0.39500
O1996       O  0.47510540  0.72783690  0.84576504    -0.39500
O1997       O  0.94113031  0.54362855  0.88928329    -0.40200
O1998       O  0.90242075  0.57511249  0.85386740    -0.40200
C1999       C  0.53352848  0.86369694  0.82566858    -0.12500
C2000       C  0.49797538  0.88060358  0.81814626     0.04500
C2001       C  0.97133945  0.85876380  0.83147288    -0.07800
C2002       C  0.97566394  0.83240040  0.86081316    -0.08500
C2003       C  0.50534741  0.82513663  0.87538055    -0.03100
C2004       C  0.53746137  0.83626356  0.85402843     0.03700
N2005       N  0.57469052  0.82332090  0.86325659     0.66200
H2006       H  0.55918342  0.87382146  0.81132453     0.15100
H2007       H  0.95043186  0.81848577  0.87278082     0.14800
N2008       N  0.93452332  0.86449227  0.81617186     0.73900
O2009       O  0.58494702  0.79067701  0.85481586    -0.39500
O2010       O  0.59853358  0.84571418  0.87663714    -0.39500
O2011       O  0.92875713  0.85573140  0.78366283    -0.40200
O2012       O  0.90649324  0.87175848  0.83660746    -0.40200
C2013       C  0.53517816  0.88332451  0.63264015    -0.12500
C2014       C  0.50586456  0.89843281  0.65362568     0.04500
C2015       C  0.96799702  0.88390032  0.65221767    -0.07800
C2016       C  0.96011309  0.85584778  0.62729626    -0.08500
C2017       C  0.98938952  0.84003110  0.60679338    -0.03100
C2018       C  0.52855437  0.85188439  0.61101320     0.03700
N2019       N  0.56072298  0.83192288  0.59640568     0.66200
H2020       H  0.56351246  0.89562121  0.63378749     0.15100
H2021       H  0.93095050  0.84620214  0.62391417     0.14800
N2022       N  0.93777610  0.89648922  0.67543888     0.73900
O2023       O  0.59426511  0.84331214  0.60233913    -0.39500
O2024       O  0.55637760  0.79980455  0.58305481    -0.39500
O2025       O  0.90433728  0.89933021  0.66346689    -0.40200
O2026       O  0.94286526  0.89776273  0.70938501    -0.40200
C2027       C  0.99044871  0.67687327  0.62412034    -0.12500
C2028       C  0.00260805  0.66602142  0.58940041     0.04500
C2029       C  0.50937756  0.62359469  0.58367486    -0.07800
C2030       C  0.50440549  0.59697174  0.61269012    -0.08500
C2031       C  0.99319883  0.61122287  0.64781707    -0.03100
C2032       C  0.98546224  0.64986156  0.65323220     0.03700
N2033       N  0.97038309  0.66186958  0.68723025     0.66200
H2034       H  0.98222406  0.70591111  0.62802229     0.15100
H2035       H  0.51023019  0.56760170  0.60763946     0.14800
N2036       N  0.52140270  0.61080956  0.54895695     0.73900
O2037       O  0.99207729  0.67759364  0.70937909    -0.39500
O2038       O  0.93477435  0.66164811  0.69281625    -0.39500
O2039       O  0.55616025  0.61371974  0.53973153    -0.40200
O2040       O  0.49952336  0.58959199  0.53164863    -0.40200
loop_ 
_geom_bond_atom_site_label_1 
_geom_bond_atom_site_label_2 
_geom_bond_distance 
_geom_bond_site_symmetry_2 
_ccdc_geom_bond_type 
O1            C9   1.273       .  A
O1          Co21   1.997   1_545  S
O2           C10   1.274       .  A
O2          Co22   1.899   1_455  S
O3           C11   1.264       .  A
O3          Co23   1.990       .  S
O4           C12   1.237       .  A
O4          Co24   1.919       .  S
O5         C1031   1.269   1_455  A
O5         Co532   1.995   1_445  S
O6          C522   1.264       .  A
O6        Co1041   2.029   1_445  S
O7           C10   1.298       .  A
O7          Co24   2.089       .  S
O8            C9   1.273       .  A
O8          Co23   2.007       .  S
C9          C246   1.500       .  S
C10         C162   1.495       .  S
C11        O1025   1.267       .  A
C11         C201   1.479       .  S
C12         O516   1.264       .  A
C12         C176   1.475       .  S
O13        C1046   1.279       .  A
O13        Co531   1.892       .  S
O14         C537   1.270       .  A
O14       Co1042   1.988       .  S
O15          C28   1.270   1_545  A
O15         Co23   2.012       .  S
O16          C29   1.241       .  A
O16         Co24   1.929       .  S
O17          C29   1.270   1_655  A
O17         Co22   2.036       .  S
O18          C28   1.269       .  A
O18         Co21   1.986       .  S
O19          C26   1.297       .  A
O19         Co24   2.076       .  S
O20          C27   1.272       .  A
O20         Co23   1.996       .  S
Co21       O1026   2.027   1_565  S
Co21        O523   1.895       .  S
Co21       O1045   1.939   1_565  S
Co22        O515   1.994   1_655  S
Co22       O1034   1.984       .  S
Co22        O535   1.944       .  S
Co23       O1045   2.046       .  S
Co24        O535   2.109   1_455  S
O25       Co1041   1.938   1_545  S
O25        Co532   1.945   1_545  S
O25       Co1043   2.043       .  S
O25        Co534   2.109   1_645  S
C26        O1033   1.278       .  A
C26         C229   1.474       .  S
C27         O524   1.273       .  A
C27         C145   1.487       .  S
C28         C187   1.490       .  S
C29         C215   1.484       .  S
O30          C38   1.275   1_556  A
O30         Co50   1.972       .  S
O31          C39   1.254   1_655  A
O31         Co51   1.949       .  S
O32          C40   1.256       .  A
O32         Co52   2.051       .  S
O33          C41   1.305   1_455  A
O33         Co53   2.118       .  S
O34         C295   1.236       .  A
O34       Co1071   1.941       .  S
O35        C1061   1.274       .  A
O35        Co305   1.865       .  S
O36          C39   1.271       .  A
O36         Co53   2.019       .  S
O37          C38   1.285       .  A
O37         Co52   2.019       .  S
C38         C106   1.481       .  S
C39         C218   1.479       .  S
C40         O289   1.235   1_554  A
C40          C92   1.489       .  S
C41        O1055   1.274       .  A
C41         C204   1.495       .  S
O42         C310   1.292       .  A
O42       Co1070   2.104   1_455  S
O43        C1076   1.317       .  A
O43        Co306   2.137   1_554  S
O44          C57   1.272       .  A
O44         Co52   1.994       .  S
O45          C58   1.264       .  A
O45         Co53   1.996       .  S
O46          C58   1.261       .  A
O46         Co51   1.968   1_455  S
O47          C57   1.271       .  A
O47         Co50   2.001   1_554  S
O48          C55   1.267       .  A
O48         Co53   1.915       .  S
O49          C56   1.287       .  A
O49         Co52   1.866       .  S
Co50        O290   1.871       .  S
Co50       O1062   2.115       .  S
Co50       O1329   1.953       .  S
Co51       O1054   1.938       .  S
Co51        O298   2.142       .  S
Co51         O54   2.025       .  S
Co52       O1329   1.955   1_554  S
Co53         O54   2.017   1_455  S
O54       Co1325   1.958       .  S
O54       Co1327   1.957       .  S
C55         O297   1.293       .  A
C55         C134   1.483       .  S
C56        O1063   1.319       .  A
C56         C232   1.475       .  S
C57         C243   1.490       .  S
C58         C117   1.479       .  S
O59          C67   1.267       .  A
O59         Co79   2.008   1_554  S
O60          C68   1.295       .  A
O60         Co80   2.049       .  S
O61          C69   1.267       .  A
O61         Co81   1.901       .  S
O62          C70   1.249       .  A
O62         Co82   1.995       .  S
O63         C579   1.296       .  A
O63        Co335   2.063       .  S
O64         C325   1.263   1_556  A
O64        Co589   2.023       .  S
O65          C68   1.281       .  A
O65         Co82   1.918       .  S
O66          C67   1.264       .  A
O66         Co81   2.013       .  S
C67         C190   1.497   1_545  S
C68         C120   1.481       .  S
C69         O573   1.295   1_545  A
C69         C173   1.470       .  S
C70         O319   1.262       .  A
C70          C89   1.478       .  S
O71         C594   1.261   1_545  A
O71        Co334   1.969       .  S
O72         C340   1.257       .  A
O72        Co590   1.996   1_545  S
O73          C86   1.263       .  A
O73         Co81   1.991       .  S
O74          C87   1.255       .  A
O74         Co82   1.999       .  S
O75          C87   1.251       .  A
O75         Co80   1.981       .  S
O76          C86   1.264   1_556  A
O76         Co79   1.984       .  S
O77          C84   1.281       .  A
O77         Co82   2.057       .  S
O78          C85   1.250       .  A
O78         Co81   1.981       .  S
Co79        O574   2.020   1_545  S
Co79        O326   1.971       .  S
Co79        O338   2.080       .  S
Co80        O318   2.067       .  S
Co80        O582   2.002       .  S
Co80        O593   2.242       .  S
Co81        O338   1.952   1_554  S
Co82        O593   1.953       .  S
O83        Co334   2.078       .  S
O83        Co590   2.238   1_545  S
O83        Co336   1.954       .  S
O83        Co592   1.946   1_545  S
C84         O581   1.263       .  A
C84         C148   1.495       .  S
C85         O327   1.257       .  A
C85         C131   1.487   1_554  S
C86         C103   1.477       .  S
C87         C159   1.500       .  S
C88          C89   1.400       .  A
C88          C93   1.398       .  A
C88          H95   1.084       .  S
C89         C345   1.412       .  A
C90          C91   1.413       .  A
C90         C344   1.412       .  A
C90          N97   1.435       .  S
C91          C92   1.409       .  A
C91          H96   1.083       .  S
C92         C348   1.414   1_554  A
C93         C347   1.414       .  A
C93          N94   1.430       .  S
N94          O98   1.261       .  A
N94          O99   1.262       .  A
N97         O101   1.261       .  A
N97         O100   1.262       .  A
C102        C107   1.397       .  A
C102        C358   1.401       .  A
C102        H109   1.084       .  S
C103        C104   1.413       .  A
C103        C357   1.401   1_554  A
C104        C105   1.399       .  A
C104        N111   1.430       .  S
C105        C106   1.404       .  A
C105        H110   1.084       .  S
C106        C362   1.414   1_554  A
C107        C361   1.414       .  A
C107        N108   1.428       .  S
N108        O112   1.262       .  A
N108        O113   1.261       .  A
N111        O115   1.262       .  A
N111        O114   1.262       .  A
C116        C117   1.401       .  A
C116        C121   1.393       .  A
C116        H123   1.083       .  S
C117        C118   1.414       .  A
C118        C119   1.408       .  A
C118        N125   1.430       .  S
C119        C120   1.405       .  A
C119        H124   1.084       .  S
C120        C121   1.413       .  A
C121        N122   1.432       .  S
N122        O126   1.261       .  A
N122        O382   1.262       .  A
N125        O129   1.262       .  A
N125        O128   1.261       .  A
O127        N377   1.262       .  A
C130        C135   1.399       .  A
C130        C386   1.403       .  A
C130        H137   1.084       .  S
C131        C132   1.414   1_556  A
C131        C385   1.404       .  A
C132        C133   1.410   1_554  A
C132        N139   1.428       .  S
C133        C389   1.404       .  A
C133        H138   1.083   1_556  S
C134        C135   1.408       .  A
C134        C388   1.405       .  A
C135        N136   1.428       .  S
N136        O140   1.261       .  A
N136        O396   1.262       .  A
N139        O143   1.261       .  A
N139        O397   1.262       .  A
O141        N391   1.262       .  A
O142        N394   1.262       .  A
C144        C149   1.399       .  A
C144        C655   1.405       .  A
C144        H151   1.084       .  S
C145        C146   1.413       .  A
C145        C654   1.401   1_545  A
C146        C147   1.410       .  A
C146        N153   1.432       .  S
C147        C658   1.411   1_545  A
C147        H152   1.081       .  S
C148        C149   1.414       .  A
C148        C657   1.408       .  A
C149        N150   1.429       .  S
N150        O154   1.262       .  A
N150        O665   1.262       .  A
N153        O157   1.263       .  A
N153        O666   1.262       .  A
O155        N660   1.262       .  A
O156        N663   1.262       .  A
C158        C159   1.408       .  A
C158        C163   1.413       .  A
C158        H675   1.083       .  S
C159        C160   1.422       .  A
C160        C161   1.396       .  A
C160        N167   1.429       .  S
C161        C162   1.399       .  A
C161        H166   1.084       .  S
C162        C163   1.418       .  A
C163        N674   1.429       .  S
N164        C673   1.429   1_545  S
N164        O168   1.262       .  A
N164        O679   1.262   1_545  A
H165        C668   1.083   1_545  S
N167        O171   1.262       .  A
N167        O170   1.262       .  A
O169        N674   1.262       .  A
C172        C177   1.393       .  A
C172        C683   1.396       .  A
C172        H179   1.084       .  S
C173        C174   1.412       .  A
C173        C682   1.396   1_545  A
C174        C175   1.402       .  A
C174        N181   1.428       .  S
C175        C686   1.400       .  A
C175        H180   1.084       .  S
C176        C177   1.419       .  A
C176        C685   1.400       .  A
C177        N178   1.431       .  S
N178        O182   1.261       .  A
N178        O183   1.262       .  A
N181        O185   1.262       .  A
N181        O694   1.262       .  A
O184        N691   1.262       .  A
C186        C187   1.406       .  A
C186        C191   1.410       .  A
C186        H703   1.084   1_565  S
C187        C188   1.413       .  A
C188        C189   1.403       .  A
C188        N195   1.428       .  S
C189        C190   1.405       .  A
C189        H194   1.084       .  S
C190        C191   1.414       .  A
C191        N702   1.426   1_565  S
N192        C701   1.427       .  S
N192        O196   1.261       .  A
N192        O707   1.262       .  A
H193        C696   1.083       .  S
N195        O199   1.261   1_565  A
N195        O198   1.261       .  A
O197        N702   1.262       .  A
C200        C205   1.416       .  A
C200       C1221   1.408       .  A
C200        H207   1.084   1_655  S
C201        C202   1.410       .  A
C201       C1220   1.405       .  A
C202        C203   1.392       .  A
C202        N209   1.428       .  S
C203       C1224   1.402       .  A
C203        H208   1.084       .  S
C204        C205   1.418       .  A
C204       C1223   1.401       .  A
C205        N206   1.430   1_655  S
N206        O210   1.262       .  A
N206        O211   1.262   1_455  A
N209        O213   1.262       .  A
N209        O212   1.261       .  A
C214        C215   1.414       .  A
C214        C219   1.400       .  A
C214        H221   1.084       .  S
C215       C1236   1.402   1_455  A
C216        C217   1.400       .  A
C216       C1235   1.408       .  A
C216        N223   1.429       .  S
C217       C1238   1.410       .  A
C217        H222   1.084       .  S
C218        C219   1.403       .  A
C218       C1237   1.413   1_455  A
C219        N220   1.430       .  S
N220        O224   1.262       .  A
N220        O225   1.262       .  A
N223        O227   1.261       .  A
N223        O226   1.262       .  A
C228        C229   1.397       .  A
C228        C233   1.407       .  A
C228        H235   1.081       .  S
C229       C1250   1.416   1_455  A
C230        C231   1.404       .  A
C230       C1249   1.413       .  A
C230        N237   1.435       .  S
C231        C232   1.401       .  A
C231        H236   1.084       .  S
C232       C1253   1.418       .  A
C233       C1252   1.418   1_455  A
C233        N234   1.446       .  S
N234        O238   1.263       .  A
N234        O239   1.262       .  A
N237        O241   1.262       .  A
N237        O240   1.261       .  A
C242        C243   1.407       .  A
C242        C247   1.411       .  A
C242        H249   1.084       .  S
C243       C1264   1.411       .  A
C244        C245   1.400       .  A
C244       C1263   1.408       .  A
C244        N251   1.428       .  S
C245       C1266   1.407   1_455  A
C245        H250   1.084       .  S
C246        C247   1.418       .  A
C246       C1265   1.407       .  A
C247        N248   1.429       .  S
N248        O252   1.262       .  A
N248        O253   1.262       .  A
N251        O255   1.262       .  A
N251        O254   1.261       .  A
O256        C264   1.275       .  A
O256       Co276   2.000   1_545  S
O257        C265   1.267       .  A
O257       Co277   1.902   1_455  S
O258        C266   1.266       .  A
O258       Co278   1.993       .  S
O259        C267   1.254       .  A
O259       Co279   1.994       .  S
O260       C1286   1.267   1_455  A
O260       Co787   1.994   1_445  S
O261        C777   1.264       .  A
O261      Co1296   2.030   1_445  S
O262        C265   1.298       .  A
O262       Co279   2.117       .  S
O263        C264   1.275       .  A
O263       Co278   2.005       .  S
C264        C501   1.500       .  S
C265        C417   1.503       .  S
C266       O1280   1.270       .  A
C266        C456   1.487       .  S
C267        O771   1.254       .  A
C267        C431   1.487       .  S
O268       C1301   1.277       .  A
O268       Co786   1.898       .  S
O269        C792   1.273       .  A
O269      Co1297   1.985       .  S
O270        C283   1.265   1_545  A
O270       Co278   1.995       .  S
O271        C284   1.269       .  A
O271       Co279   1.898       .  S
O272        C284   1.300   1_655  A
O272       Co277   2.087       .  S
O273        C283   1.266       .  A
O273       Co276   1.991       .  S
O274        C281   1.307       .  A
O274       Co279   2.103       .  S
O275        C282   1.271       .  A
O275       Co278   2.004       .  S
Co276      O1281   2.028   1_565  S
Co276       O778   1.904       .  S
Co276      O1300   1.941   1_565  S
Co277       O770   2.000   1_655  S
Co277      O1289   1.986       .  S
Co277       O790   1.989       .  S
Co278      O1300   2.041       .  S
Co279       O790   2.107   1_455  S
O280      Co1296   1.942   1_545  S
O280       Co787   1.956   1_545  S
O280      Co1298   2.049       .  S
O280       Co789   2.109   1_645  S
C281       O1288   1.280       .  A
C281        C484   1.479   1_455  S
C282        O779   1.274       .  A
C282        C400   1.497   1_545  S
C283        C442   1.485       .  S
C284        C470   1.490       .  S
O285        C293   1.275       .  A
O285       Co305   1.971       .  S
O286        C294   1.259   1_655  A
O286       Co306   1.959       .  S
O287        C295   1.255       .  A
O287       Co307   2.045       .  S
O288        C296   1.305       .  A
O288       Co308   2.115   1_655  S
O289      Co1326   1.941       .  S
O290       C1316   1.276       .  A
O291        C294   1.270       .  A
O291       Co308   2.016       .  S
O292        C293   1.285       .  A
O292       Co307   2.021       .  S
C293        C361   1.482       .  S
C294        C473   1.490       .  S
C295        C347   1.488       .  S
C296       O1310   1.273       .  A
C296        C459   1.492       .  S
O297      Co1325   2.111   1_455  S
O298       C1331   1.318       .  A
O299        C312   1.271       .  A
O299       Co307   1.998       .  S
O300        C313   1.264       .  A
O300       Co308   1.999       .  S
O301        C313   1.258       .  A
O301       Co306   1.961   1_455  S
O302        C312   1.267       .  A
O302       Co305   1.995       .  S
O303        C310   1.266       .  A
O303       Co308   1.913       .  S
O304        C311   1.288       .  A
O304       Co307   1.863       .  S
Co305      O1317   2.105       .  S
Co305      O1074   1.956       .  S
Co306      O1309   1.940       .  S
Co306       O309   2.028       .  S
Co307      O1074   1.960       .  S
Co308       O309   2.016   1_455  S
O309      Co1070   1.963       .  S
O309      Co1072   1.962   1_556  S
C310        C389   1.477       .  S
C311       O1318   1.318       .  A
C311        C487   1.469       .  S
C312        C498   1.488       .  S
C313        C372   1.479   1_556  S
O314        C322   1.268       .  A
O314       Co334   2.006       .  S
O315        C323   1.296   1_554  A
O315       Co335   2.053       .  S
O316        C324   1.267       .  A
O316       Co336   1.902       .  S
O317        C325   1.250       .  A
O317       Co337   1.996   1_554  S
O318        C834   1.294       .  A
O319       Co844   2.020       .  S
O320        C323   1.280       .  A
O320       Co337   1.913       .  S
O321        C322   1.265   1_565  A
O321       Co336   2.010   1_565  S
C322        C445   1.497   1_545  S
C323        C375   1.482   1_556  S
C324        O828   1.294   1_545  A
C324        C428   1.471       .  S
C325        C344   1.480       .  S
O326        C849   1.261   1_545  A
O327       Co845   1.994   1_545  S
O328        C341   1.263       .  A
O328       Co336   1.992       .  S
O329        C342   1.255       .  A
O329       Co337   2.005       .  S
O330        C342   1.253       .  A
O330       Co335   1.988   1_556  S
O331        C341   1.265       .  A
O331       Co334   1.983       .  S
O332        C339   1.278       .  A
O332       Co337   2.046       .  S
O333        C340   1.250       .  A
O333       Co336   1.981       .  S
Co334       O829   2.035   1_545  S
Co335       O837   1.992       .  S
Co335       O848   2.239   1_554  S
Co337       O848   1.951       .  S
O338       Co845   2.240   1_546  S
O338       Co847   1.946   1_545  S
C339        O836   1.261       .  A
C339        C403   1.483       .  S
C340        C386   1.489       .  S
C341        C358   1.479       .  S
C342        C414   1.506       .  S
C343        C344   1.400   1_556  A
C343        C348   1.399       .  A
C343        H350   1.084       .  S
C345        C346   1.412       .  A
C345        N352   1.435       .  S
C346        C347   1.409       .  A
C346        H351   1.083       .  S
C348        N349   1.430       .  S
N349        O353   1.261       .  A
N349        O354   1.262       .  A
N352        O356   1.262       .  A
N352        O355   1.262       .  A
C357        C362   1.398       .  A
C357        H364   1.084       .  S
C358        C359   1.414       .  A
C359        C360   1.401       .  A
C359        N366   1.430       .  S
C360        C361   1.405       .  A
C360        H365   1.084       .  S
C362        N363   1.428       .  S
N363        O367   1.262       .  A
N363        O368   1.261       .  A
N366        O370   1.262       .  A
N366        O369   1.262       .  A
C371        C372   1.402       .  A
C371        C376   1.393       .  A
C371        H378   1.083       .  S
C372        C373   1.414   1_554  A
C373        C374   1.408       .  A
C373        N380   1.431       .  S
C374        C375   1.406   1_556  A
C374        H379   1.084       .  S
C375        C376   1.413       .  A
C376        N377   1.432       .  S
N377        O381   1.262       .  A
N380        O384   1.262       .  A
N380        O383   1.261       .  A
C385        C390   1.398       .  A
C385        H392   1.083       .  S
C386        C387   1.416       .  A
C387        C388   1.412       .  A
C387        N394   1.430       .  S
C388        H393   1.083       .  S
C389        C390   1.407       .  A
C390        N391   1.428       .  S
N391        O395   1.261       .  A
N394        O398   1.262       .  A
C399        C910   1.402       .  A
C399        C404   1.395       .  A
C399        H406   1.084       .  S
C400        C909   1.402       .  A
C400        C401   1.418   1_565  A
C401        C402   1.414   1_545  A
C401        N408   1.428       .  S
C402        C913   1.407       .  A
C402        H407   1.084   1_565  S
C403        C912   1.406       .  A
C403        C404   1.413       .  A
C404        N405   1.428       .  S
N405        O409   1.261       .  A
N405        O920   1.262       .  A
N408        O412   1.262       .  A
N408        O921   1.262   1_545  A
O410        N915   1.262       .  A
O411        N918   1.262       .  A
C413        C414   1.411       .  A
C413        C418   1.420       .  A
C413        H930   1.083       .  S
C414        C415   1.419       .  A
C415        C416   1.396       .  A
C415        N422   1.429       .  S
C416        C417   1.402       .  A
C416        H421   1.084       .  S
C417        C418   1.419       .  A
C418        N929   1.430       .  S
N419        C928   1.429       .  S
N419        O423   1.262   1_565  A
N419        O934   1.262       .  A
H420        C923   1.083       .  S
N422        O426   1.262       .  A
N422        O425   1.262       .  A
O424        N929   1.262       .  A
C427        C938   1.404       .  A
C427        C432   1.403       .  A
C427        H434   1.084       .  S
C428        C937   1.397   1_545  A
C428        C429   1.411       .  A
C429        C430   1.401       .  A
C429        N436   1.427       .  S
C430        C941   1.401       .  A
C430        H435   1.084       .  S
C431        C940   1.405       .  A
C431        C432   1.415       .  A
C432        N433   1.429       .  S
N433        O437   1.261       .  A
N433        O438   1.262       .  A
N436        O440   1.262       .  A
N436        O949   1.261       .  A
O439        N946   1.262       .  A
C441        C442   1.405       .  A
C441        C446   1.408       .  A
C441        H958   1.084       .  S
C442        C443   1.411       .  A
C443        C444   1.402       .  A
C443        N450   1.428       .  S
C444        C445   1.407       .  A
C444        H449   1.084       .  S
C445        C446   1.414       .  A
C446        N957   1.426       .  S
N447        C956   1.427       .  S
N447        O451   1.261       .  A
N447        O962   1.262       .  A
H448        C951   1.083       .  S
N450        O454   1.262   1_565  A
N450        O453   1.261       .  A
O452        N957   1.262   1_545  A
C455       C1476   1.405   1_455  A
C455        C460   1.411   1_455  A
C455        H462   1.084       .  S
C456       C1475   1.404       .  A
C456        C457   1.417       .  A
C457        C458   1.396       .  A
C457        N464   1.430       .  S
C458       C1479   1.397       .  A
C458        H463   1.084       .  S
C459       C1478   1.404       .  A
C459        C460   1.417       .  A
C460        N461   1.428   1_655  S
N461        O465   1.261       .  A
N461        O466   1.262   1_455  A
N464        O468   1.262       .  A
N464        O467   1.262       .  A
C469        C470   1.411       .  A
C469        C474   1.406       .  A
C469        H476   1.083       .  S
C470       C1491   1.410   1_455  A
C471       C1490   1.402       .  A
C471        C472   1.404       .  A
C471        N478   1.427       .  S
C472       C1493   1.414       .  A
C472        H477   1.083       .  S
C473       C1492   1.409   1_455  A
C473        C474   1.410       .  A
C474        N475   1.431       .  S
N475        O479   1.262       .  A
N475        O480   1.262       .  A
N478        O482   1.261       .  A
N478        O481   1.262       .  A
C483        C484   1.400   1_455  A
C483        C488   1.409       .  A
C483        H490   1.078       .  S
C484       C1505   1.413       .  A
C485       C1504   1.416       .  A
C485        C486   1.401       .  A
C485        N492   1.435       .  S
C486        C487   1.398       .  A
C486        H491   1.085       .  S
C487       C1508   1.418       .  A
C488       C1507   1.418   1_455  A
C488        N489   1.446       .  S
N489        O493   1.263       .  A
N489        O494   1.263       .  A
N492        O496   1.262       .  A
N492        O495   1.263       .  A
C497        C498   1.405       .  A
C497        C502   1.410       .  A
C497        H504   1.084       .  S
C498       C1519   1.409       .  A
C499       C1518   1.410       .  A
C499        C500   1.400       .  A
C499        N506   1.429       .  S
C500       C1521   1.407   1_455  A
C500        H505   1.083       .  S
C501       C1520   1.408       .  A
C501        C502   1.418       .  A
C502        N503   1.428       .  S
N503        O507   1.262       .  A
N503        O508   1.262       .  A
N506        O510   1.262   1_455  A
N506        O509   1.261       .  A
O511        C519   1.278       .  A
O511       Co531   1.991       .  S
O512        C520   1.275       .  A
O512       Co532   1.905   1_455  S
O513        C521   1.263       .  A
O513       Co533   1.984       .  S
O514        C522   1.237   1_565  A
O514       Co534   1.917       .  S
O515       C1541   1.268   1_455  A
O516      Co1551   2.030   1_455  S
O517        C520   1.297       .  A
O517       Co534   2.088       .  S
O518        C519   1.279       .  A
O518       Co533   2.005       .  S
C519        C756   1.495       .  S
C520        C672   1.499       .  S
C521       O1535   1.265       .  A
C521        C711   1.475       .  S
C522        C686   1.473       .  S
O523       C1556   1.276       .  A
O524      Co1552   1.990   1_545  S
O525        C538   1.255       .  A
O525       Co533   1.986       .  S
O526        C539   1.241   1_455  A
O526       Co534   1.926       .  S
O527        C539   1.271       .  A
O527       Co532   2.038       .  S
O528        C538   1.261       .  A
O528       Co531   2.015       .  S
O529        C536   1.297       .  A
O529       Co534   2.080       .  S
O530        C537   1.271       .  A
O530       Co533   2.012       .  S
Co531      O1536   1.984       .  S
Co531      O1555   1.882       .  S
Co532      O1544   1.986   1_565  S
Co533      O1555   2.071       .  S
O535      Co1551   1.937       .  S
O535      Co1553   2.043       .  S
C536       O1543   1.277       .  A
C536        C739   1.478       .  S
C537        C655   1.508       .  S
C538        C697   1.488       .  S
C539        C725   1.487       .  S
O540        C548   1.273   1_556  A
O540       Co560   1.967       .  S
O541        C549   1.256   1_655  A
O541       Co561   1.943       .  S
O542        C550   1.255       .  A
O542       Co562   2.043       .  S
O543        C551   1.303       .  A
O543       Co563   2.114   1_655  S
O544        C805   1.234       .  A
O544      Co1581   1.943       .  S
O545       C1571   1.275       .  A
O545       Co815   1.866       .  S
O546        C549   1.272       .  A
O546       Co563   2.017       .  S
O547        C548   1.287       .  A
O547       Co562   2.026       .  S
C548        C616   1.482       .  S
C549        C728   1.484       .  S
C550        O799   1.236   1_554  A
C550        C602   1.490       .  S
C551       O1565   1.274       .  A
C551        C714   1.496       .  S
O552        C820   1.292       .  A
O552      Co1580   2.107   1_455  S
O553       C1586   1.318       .  A
O553       Co816   2.137   1_554  S
O554        C567   1.268       .  A
O554       Co562   1.988       .  S
O555        C568   1.263       .  A
O555       Co563   1.996       .  S
O556        C568   1.259       .  A
O556       Co561   1.963   1_455  S
O557        C567   1.267       .  A
O557       Co560   1.992   1_554  S
O558        C565   1.268       .  A
O558       Co563   1.922       .  S
O559        C566   1.287       .  A
O559       Co562   1.868       .  S
Co560       O800   1.874       .  S
Co560      O1572   2.110       .  S
Co560      O1839   1.964       .  S
Co561      O1564   1.946       .  S
Co561       O808   2.137       .  S
Co561       O564   2.031       .  S
Co562      O1839   1.959   1_554  S
Co563       O564   2.021   1_455  S
O564      Co1835   1.966       .  S
O564      Co1837   1.958       .  S
C565        O807   1.293       .  A
C565        C644   1.488       .  S
C566       O1573   1.316       .  A
C566        C742   1.474       .  S
C567        C753   1.480       .  S
C568        C627   1.477       .  S
O569        C577   1.266       .  A
O569       Co589   2.002   1_554  S
O570        C578   1.297       .  A
O570       Co590   2.054       .  S
O571        C579   1.267       .  A
O571       Co591   1.899       .  S
O572        C580   1.249       .  A
O572       Co592   1.994       .  S
O573       Co845   2.060       .  S
O574        C835   1.262   1_556  A
O575        C578   1.280       .  A
O575       Co592   1.910       .  S
O576        C577   1.266       .  A
O576       Co591   2.016       .  S
C577        C700   1.497       .  S
C578        C630   1.481       .  S
C579        C683   1.470       .  S
C580        O829   1.268       .  A
C580        C599   1.485       .  S
O581       Co844   1.977       .  S
O582        C850   1.258       .  A
O583        C596   1.263       .  A
O583       Co591   1.989       .  S
O584        C597   1.255       .  A
O584       Co592   2.001       .  S
O585        C597   1.251       .  A
O585       Co590   1.984       .  S
O586        C596   1.266   1_556  A
O586       Co589   1.985       .  S
O587        C594   1.281       .  A
O587       Co592   2.055       .  S
O588        C595   1.250       .  A
O588       Co591   1.983       .  S
Co589       O836   1.970       .  S
Co589       O848   2.079       .  S
Co590       O828   2.062       .  S
Co591       O848   1.952   1_554  S
O593       Co844   2.083       .  S
O593       Co846   1.955       .  S
C594        C658   1.494       .  S
C595        O837   1.255       .  A
C595        C641   1.488   1_554  S
C596        C613   1.478       .  S
C597        C669   1.502       .  S
C598        C599   1.398       .  A
C598        C603   1.402       .  A
C598        H605   1.074       .  S
C599        C855   1.413       .  A
C600        C854   1.414       .  A
C600        C601   1.414       .  A
C600        N607   1.437       .  S
C601        C602   1.408       .  A
C601        H606   1.083       .  S
C602        C858   1.412   1_554  A
C603        C857   1.414       .  A
C603        N604   1.433       .  S
N604        O608   1.262       .  A
N604        O609   1.262       .  A
N607        O611   1.262       .  A
N607        O610   1.262       .  A
C612        C868   1.402       .  A
C612        C617   1.399       .  A
C612        H619   1.084       .  S
C613        C867   1.400   1_554  A
C613        C614   1.415       .  A
C614        C615   1.401       .  A
C614        N621   1.430       .  S
C615        C616   1.404       .  A
C615        H620   1.084       .  S
C616        C872   1.415   1_554  A
C617        C871   1.415       .  A
C617        N618   1.429       .  S
N618        O622   1.262       .  A
N618        O623   1.261       .  A
N621        O625   1.262       .  A
N621        O624   1.262       .  A
C626        C627   1.402       .  A
C626        C631   1.394       .  A
C626        H633   1.083       .  S
C627        C628   1.413       .  A
C628        C629   1.407       .  A
C628        N635   1.432       .  S
C629        C630   1.406       .  A
C629        H634   1.084       .  S
C630        C631   1.413       .  A
C631        N632   1.433       .  S
N632        O636   1.262       .  A
N632        O892   1.262       .  A
N635        O639   1.262       .  A
N635        O638   1.262       .  A
O637        N887   1.262       .  A
C640        C896   1.404       .  A
C640        C645   1.402       .  A
C640        H647   1.083       .  S
C641        C895   1.405       .  A
C641        C642   1.414   1_556  A
C642        C643   1.410   1_554  A
C642        N649   1.429       .  S
C643        C899   1.405       .  A
C643        H648   1.083   1_556  S
C644        C898   1.406       .  A
C644        C645   1.410       .  A
C645        N646   1.428       .  S
N646        O650   1.261       .  A
N646        O906   1.262       .  A
N649        O653   1.261       .  A
N649        O907   1.262       .  A
O651        N901   1.261       .  A
O652        N904   1.262       .  A
C654        C659   1.403       .  A
C654        H661   1.078       .  S
C655        C656   1.419       .  A
C656        C657   1.417       .  A
C656        N663   1.428       .  S
C657        H662   1.084       .  S
C658        C659   1.410       .  A
C659        N660   1.422       .  S
N660        O664   1.262       .  A
N663        O667   1.262       .  A
C668        C669   1.408       .  A
C668        C673   1.414       .  A
C669        C670   1.421       .  A
C670        C671   1.398       .  A
C670        N677   1.429       .  S
C671        C672   1.400       .  A
C671        H676   1.084       .  S
C672        C673   1.419       .  A
N674        O678   1.262       .  A
N677        O681   1.262       .  A
N677        O680   1.262       .  A
C682        C687   1.391       .  A
C682        H689   1.084       .  S
C683        C684   1.412       .  A
C684        C685   1.401       .  A
C684        N691   1.428       .  S
C685        H690   1.084       .  S
C686        C687   1.418   1_545  A
C687        N688   1.431       .  S
N688        O692   1.261       .  A
N688        O693   1.262       .  A
N691        O695   1.262       .  A
C696        C697   1.406       .  A
C696        C701   1.409       .  A
C697        C698   1.411       .  A
C698        C699   1.404       .  A
C698        N705   1.429       .  S
C699        C700   1.408       .  A
C699        H704   1.084       .  S
C700        C701   1.413       .  A
N702        O706   1.261   1_545  A
N705        O709   1.262       .  A
N705        O708   1.261       .  A
C710       C1731   1.406   1_455  A
C710        C715   1.414   1_455  A
C710        H717   1.084       .  S
C711       C1730   1.403       .  A
C711        C712   1.409       .  A
C712        C713   1.392       .  A
C712        N719   1.427       .  S
C713       C1734   1.398       .  A
C713        H718   1.084       .  S
C714       C1733   1.402       .  A
C714        C715   1.419       .  A
C715        N716   1.429   1_655  S
N716        O720   1.262       .  A
N716        O721   1.262   1_455  A
N719        O723   1.262       .  A
N719        O722   1.262       .  A
C724        C725   1.416   1_455  A
C724        C729   1.402       .  A
C724        H731   1.083       .  S
C725       C1746   1.402       .  A
C726       C1745   1.404       .  A
C726        C727   1.405       .  A
C726        N733   1.430       .  S
C727       C1748   1.413       .  A
C727        H732   1.083       .  S
C728       C1747   1.413   1_455  A
C728        C729   1.404       .  A
C729        N730   1.432       .  S
N730        O734   1.262       .  A
N730        O735   1.262       .  A
N733        O737   1.262       .  A
N733        O736   1.262       .  A
C738        C739   1.398       .  A
C738        C743   1.409       .  A
C738        H745   1.080       .  S
C739       C1760   1.416   1_455  A
C740       C1759   1.416       .  A
C740        C741   1.402       .  A
C740        N747   1.435       .  S
C741        C742   1.399       .  A
C741        H746   1.084       .  S
C742       C1763   1.420       .  A
C743       C1762   1.419   1_455  A
C743        N744   1.446       .  S
N744        O748   1.263       .  A
N744        O749   1.263       .  A
N747        O751   1.262       .  A
N747        O750   1.262       .  A
C752        C753   1.405       .  A
C752        C757   1.409       .  A
C752        H759   1.084       .  S
C753       C1774   1.406       .  A
C754       C1773   1.408       .  A
C754        C755   1.399       .  A
C754        N761   1.428       .  S
C755       C1776   1.408   1_455  A
C755        H760   1.083       .  S
C756       C1775   1.408       .  A
C756        C757   1.417       .  A
C757        N758   1.429       .  S
N758        O762   1.262       .  A
N758        O763   1.262       .  A
N761        O765   1.262   1_455  A
N761        O764   1.261       .  A
O766        C774   1.274       .  A
O766       Co786   1.992       .  S
O767        C775   1.276       .  A
O767       Co787   1.905   1_455  S
O768        C776   1.267       .  A
O768       Co788   2.002       .  S
O769        C777   1.237   1_565  A
O769       Co789   1.921       .  S
O770       C1796   1.264   1_455  A
O771      Co1806   1.985   1_455  S
O772        C775   1.299       .  A
O772       Co789   2.091       .  S
O773        C774   1.275       .  A
O773       Co788   2.008       .  S
C774       C1011   1.497       .  S
C775        C927   1.501       .  S
C776       O1790   1.270       .  A
C776        C966   1.488       .  S
C777        C941   1.476       .  S
O778       C1811   1.277       .  A
O779      Co1807   1.992   1_545  S
O780        C793   1.267       .  A
O780       Co788   2.007       .  S
O781        C794   1.241       .  A
O781       Co789   1.926       .  S
O782        C794   1.272   1_655  A
O782       Co787   2.040       .  S
O783        C793   1.268       .  A
O783       Co786   1.991       .  S
O784        C791   1.299       .  A
O784       Co789   2.087       .  S
O785        C792   1.271       .  A
O785       Co788   2.002       .  S
Co786      O1791   2.033       .  S
Co786      O1810   1.937       .  S
Co787      O1799   1.991   1_565  S
Co788      O1810   2.048       .  S
O790      Co1806   1.882       .  S
O790      Co1808   2.072       .  S
C791       O1798   1.276       .  A
C791        C994   1.480       .  S
C792        C910   1.496       .  S
C793        C952   1.492       .  S
C794        C980   1.485       .  S
O795        C803   1.274       .  A
O795       Co815   1.969       .  S
O796        C804   1.254   1_655  A
O796       Co816   1.947       .  S
O797        C805   1.254       .  A
O797       Co817   2.044       .  S
O798        C806   1.303   1_455  A
O798       Co818   2.109       .  S
O799      Co1836   1.944       .  S
O800       C1826   1.274       .  A
O801        C804   1.272       .  A
O801       Co818   2.022       .  S
O802        C803   1.287       .  A
O802       Co817   2.026       .  S
C803        C871   1.483       .  S
C804        C983   1.479       .  S
C805        C857   1.487       .  S
C806       O1820   1.274       .  A
C806        C969   1.481       .  S
O807      Co1835   2.108   1_455  S
O808       C1841   1.317       .  A
O809        C822   1.269       .  A
O809       Co817   1.990       .  S
O810        C823   1.263       .  A
O810       Co818   1.989       .  S
O811        C823   1.261       .  A
O811       Co816   1.972   1_455  S
O812        C822   1.269       .  A
O812       Co815   1.999       .  S
O813        C820   1.267       .  A
O813       Co818   1.912       .  S
O814        C821   1.288       .  A
O814       Co817   1.866       .  S
Co815      O1827   2.112       .  S
Co815      O1584   1.957       .  S
Co816      O1819   1.944       .  S
Co816       O819   2.019       .  S
Co817      O1584   1.956       .  S
Co818       O819   2.009   1_455  S
O819      Co1580   1.955       .  S
O819      Co1582   1.953   1_556  S
C820        C899   1.480       .  S
C821       O1828   1.319       .  A
C821        C997   1.476       .  S
C822       C1008   1.486       .  S
C823        C882   1.475   1_556  S
O824        C832   1.267       .  A
O824       Co844   2.007       .  S
O825        C833   1.297       .  A
O825       Co845   2.054       .  S
O826        C834   1.270       .  A
O826       Co846   1.910       .  S
O827        C835   1.250       .  A
O827       Co847   1.997   1_554  S
O830        C833   1.280   1_556  A
O830       Co847   1.908       .  S
O831        C832   1.265       .  A
O831       Co846   2.012       .  S
C832        C955   1.497       .  S
C833        C885   1.479       .  S
C834        C938   1.483       .  S
C835        C854   1.480       .  S
O838        C851   1.266       .  A
O838       Co846   1.998       .  S
O839        C852   1.256       .  A
O839       Co847   2.003       .  S
O840        C852   1.251       .  A
O840       Co845   1.985   1_556  S
O841        C851   1.265       .  A
O841       Co844   1.981       .  S
O842        C849   1.279       .  A
O842       Co847   2.048       .  S
O843        C850   1.251       .  A
O843       Co846   1.985       .  S
C849        C913   1.485       .  S
C850        C896   1.495       .  S
C851        C868   1.480       .  S
C852        C924   1.504       .  S
C853        C854   1.400   1_556  A
C853        C858   1.398       .  A
C853        H860   1.084       .  S
C855        C856   1.413       .  A
C855        N862   1.437       .  S
C856        C857   1.408       .  A
C856        H861   1.082       .  S
C858        N859   1.429       .  S
N859        O863   1.260       .  A
N859        O864   1.261       .  A
N862        O866   1.262       .  A
N862        O865   1.262       .  A
C867        C872   1.396       .  A
C867        H874   1.084       .  S
C868        C869   1.413       .  A
C869        C870   1.400       .  A
C869        N876   1.429       .  S
C870        C871   1.404       .  A
C870        H875   1.084       .  S
C872        N873   1.429       .  S
N873        O877   1.262       .  A
N873        O878   1.261       .  A
N876        O880   1.261       .  A
N876        O879   1.262       .  A
C881        C882   1.401       .  A
C881        C886   1.393       .  A
C881        H888   1.083       .  S
C882        C883   1.413   1_554  A
C883        C884   1.406       .  A
C883        N890   1.431       .  S
C884        C885   1.405   1_556  A
C884        H889   1.084       .  S
C885        C886   1.412       .  A
C886        N887   1.432       .  S
N887        O891   1.261       .  A
N890        O894   1.262       .  A
N890        O893   1.261       .  A
C895        C900   1.399       .  A
C895        H902   1.084       .  S
C896        C897   1.416       .  A
C897        C898   1.413       .  A
C897        N904   1.429       .  S
C898        H903   1.083       .  S
C899        C900   1.409       .  A
C900        N901   1.429       .  S
N901        O905   1.261       .  A
N904        O908   1.262       .  A
C909        C914   1.395       .  A
C909        H916   1.084       .  S
C910        C911   1.417       .  A
C911        C912   1.412       .  A
C911        N918   1.428       .  S
C912        H917   1.084       .  S
C913        C914   1.412       .  A
C914        N915   1.428       .  S
N915        O919   1.262       .  A
N918        O922   1.262       .  A
C923        C924   1.407       .  A
C923        C928   1.414       .  A
C924        C925   1.423       .  A
C925        C926   1.400       .  A
C925        N932   1.431       .  S
C926        C927   1.401       .  A
C926        H931   1.083       .  S
C927        C928   1.420       .  A
N929        O933   1.262       .  A
N932        O936   1.262       .  A
N932        O935   1.262   1_565  A
C937        C942   1.394       .  A
C937        H944   1.084       .  S
C938        C939   1.411       .  A
C939        C940   1.403       .  A
C939        N946   1.429       .  S
C940        H945   1.084       .  S
C941        C942   1.419   1_545  A
C942        N943   1.431       .  S
N943        O947   1.262       .  A
N943        O948   1.262       .  A
N946        O950   1.262       .  A
C951        C952   1.406       .  A
C951        C956   1.410       .  A
C952        C953   1.414       .  A
C953        C954   1.404       .  A
C953        N960   1.428       .  S
C954        C955   1.406       .  A
C954        H959   1.084       .  S
C955        C956   1.413       .  A
N957        O961   1.261       .  A
N960        O964   1.261       .  A
N960        O963   1.261       .  A
C965       C1986   1.404   1_455  A
C965        C970   1.411       .  A
C965        H972   1.083       .  S
C966       C1985   1.407       .  A
C966        C967   1.411       .  A
C967        C968   1.395       .  A
C967        N974   1.426       .  S
C968       C1989   1.402       .  A
C968        H973   1.084       .  S
C969       C1988   1.399       .  A
C969        C970   1.417   1_655  A
C970        N971   1.430       .  S
N971        O975   1.262       .  A
N971        O976   1.262       .  A
N974        O978   1.261       .  A
N974        O977   1.260       .  A
C979        C980   1.415       .  A
C979        C984   1.399       .  A
C979        H986   1.084       .  S
C980       C2001   1.403   1_455  A
C981       C2000   1.402       .  A
C981        C982   1.400       .  A
C981        N988   1.429       .  S
C982       C2003   1.413       .  A
C982        H987   1.083       .  S
C983       C2002   1.413   1_455  A
C983        C984   1.403       .  A
C984        N985   1.430       .  S
N985        O989   1.262       .  A
N985        O990   1.262       .  A
N988        O992   1.261       .  A
N988        O991   1.262       .  A
C993        C994   1.398       .  A
C993        C998   1.411       .  A
C993       H1000   1.082       .  S
C994       C2015   1.416   1_455  A
C995       C2014   1.417       .  A
C995        C996   1.404       .  A
C995       N1002   1.435       .  S
C996        C997   1.399       .  A
C996       H1001   1.084       .  S
C997       C2018   1.419       .  A
C998       C2017   1.420   1_455  A
C998        N999   1.445       .  S
N999       O1003   1.263       .  A
N999       O1004   1.262       .  A
N1002      O1006   1.262       .  A
N1002      O1005   1.262       .  A
C1007      C1008   1.407       .  A
C1007      C1012   1.410       .  A
C1007      H1014   1.084       .  S
C1008      C2029   1.408       .  A
C1009      C2028   1.405       .  A
C1009      C1010   1.396       .  A
C1009      N1016   1.427       .  S
C1010      C2031   1.408   1_455  A
C1010      H1015   1.083       .  S
C1011      C2030   1.407       .  A
C1011      C1012   1.416       .  A
C1012      N1013   1.428       .  S
N1013      O1017   1.262       .  A
N1013      O1018   1.262       .  A
N1016      O1020   1.262       .  A
N1016      O1019   1.261       .  A
O1021      C1029   1.274       .  A
O1021     Co1041   1.996   1_545  S
O1022      C1030   1.268       .  A
O1022     Co1042   1.901       .  S
O1023      C1031   1.268       .  A
O1023     Co1043   2.004       .  S
O1024      C1032   1.254       .  A
O1024     Co1044   1.993       .  S
O1025     Co1552   1.993   1_545  S
O1026      C1542   1.263       .  A
O1027      C1030   1.298       .  A
O1027     Co1044   2.113       .  S
O1028      C1029   1.274       .  A
O1028     Co1043   2.003       .  S
C1029      C1266   1.495       .  S
C1030      C1182   1.501       .  S
C1031      C1221   1.487       .  S
C1032      O1536   1.254       .  A
C1032      C1196   1.486       .  S
O1033     Co1551   1.899   1_455  S
O1034      C1557   1.273       .  A
O1035      C1048   1.269   1_545  A
O1035     Co1043   2.008       .  S
O1036      C1049   1.269       .  A
O1036     Co1044   1.896       .  S
O1037      C1049   1.300       .  A
O1037     Co1042   2.087       .  S
O1038      C1048   1.268       .  A
O1038     Co1041   1.988       .  S
O1039      C1046   1.306       .  A
O1039     Co1044   2.103       .  S
O1040      C1047   1.270       .  A
O1040     Co1043   2.002       .  S
Co1041     O1543   1.902   1_655  S
Co1042     O1535   2.003       .  S
Co1042     O1555   1.989       .  S
Co1044     O1555   2.106       .  S
O1045     Co1552   1.953   1_545  S
O1045     Co1554   2.108   1_545  S
C1046      C1249   1.479       .  S
C1047      O1544   1.273       .  A
C1047      C1165   1.497   1_545  S
C1048      C1207   1.490       .  S
C1049      C1235   1.487       .  S
O1050      C1058   1.273   1_556  A
O1050     Co1070   1.969       .  S
O1051      C1059   1.258       .  A
O1051     Co1071   1.958       .  S
O1052      C1060   1.255       .  A
O1052     Co1072   2.042       .  S
O1053      C1061   1.305       .  A
O1053     Co1073   2.113       .  S
O1054      C1315   1.234       .  A
O1055     Co1325   1.868       .  S
O1056      C1059   1.270       .  A
O1056     Co1073   2.018       .  S
O1057      C1058   1.286       .  A
O1057     Co1072   2.025       .  S
C1058      C1126   1.481       .  S
C1059      C1238   1.489       .  S
C1060      O1309   1.236   1_554  A
C1060      C1112   1.487       .  S
C1061      C1224   1.490       .  S
O1062      C1330   1.294       .  A
O1063     Co1326   2.145   1_554  S
O1064      C1077   1.268   1_455  A
O1064     Co1072   1.993   1_455  S
O1065      C1078   1.264       .  A
O1065     Co1073   1.995       .  S
O1066      C1078   1.260       .  A
O1066     Co1071   1.968       .  S
O1067      C1077   1.267       .  A
O1067     Co1070   1.995   1_554  S
O1068      C1075   1.266       .  A
O1068     Co1073   1.909       .  S
O1069      C1076   1.287       .  A
O1069     Co1072   1.863       .  S
Co1070     O1310   1.867       .  S
Co1071     O1318   2.138       .  S
Co1071     O1074   2.021       .  S
Co1073     O1074   2.010       .  S
C1075      O1317   1.293       .  A
C1075      C1154   1.476       .  S
C1076      C1252   1.471       .  S
C1077      C1263   1.484   1_655  S
C1078      C1137   1.479       .  S
O1079      C1087   1.268       .  A
O1079     Co1099   2.008   1_554  S
O1080      C1088   1.296       .  A
O1080     Co1100   2.053       .  S
O1081      C1089   1.267       .  A
O1081     Co1101   1.901       .  S
O1082      C1090   1.250       .  A
O1082     Co1102   1.995       .  S
O1083      C1599   1.294       .  A
O1083     Co1355   2.063       .  S
O1084      C1345   1.263   1_556  A
O1084     Co1609   2.022       .  S
O1085      C1088   1.279       .  A
O1085     Co1102   1.912       .  S
O1086      C1087   1.267       .  A
O1086     Co1101   2.012       .  S
C1087      C1210   1.499   1_545  S
C1088      C1140   1.481       .  S
C1089      O1593   1.294   1_545  A
C1089      C1193   1.469       .  S
C1090      O1339   1.264       .  A
C1090      C1109   1.480       .  S
O1091      C1614   1.260   1_545  A
O1091     Co1354   1.970       .  S
O1092      C1360   1.256       .  A
O1092     Co1610   1.991   1_545  S
O1093      C1106   1.262       .  A
O1093     Co1101   1.987       .  S
O1094      C1107   1.255       .  A
O1094     Co1102   2.005       .  S
O1095      C1107   1.252       .  A
O1095     Co1100   1.984       .  S
O1096      C1106   1.266   1_556  A
O1096     Co1099   1.989       .  S
O1097      C1104   1.277       .  A
O1097     Co1102   2.041       .  S
O1098      C1105   1.250       .  A
O1098     Co1101   1.981       .  S
Co1099     O1594   2.034   1_545  S
Co1099     O1346   1.969       .  S
Co1099     O1358   2.079       .  S
Co1100     O1338   2.059       .  S
Co1100     O1602   1.994       .  S
Co1100     O1613   2.239       .  S
Co1101     O1358   1.953   1_554  S
Co1102     O1613   1.950       .  S
O1103     Co1354   2.078       .  S
O1103     Co1610   2.239   1_545  S
O1103     Co1356   1.953       .  S
O1103     Co1612   1.948   1_545  S
C1104      O1601   1.261       .  A
C1104      C1168   1.480       .  S
C1105      O1347   1.257       .  A
C1105      C1151   1.489   1_554  S
C1106      C1123   1.478       .  S
C1107      C1179   1.505       .  S
C1108      C1109   1.401       .  A
C1108      C1113   1.401       .  A
C1108      H1115   1.084       .  S
C1109      C1365   1.410       .  A
C1110      C1364   1.414       .  A
C1110      C1111   1.414       .  A
C1110      N1117   1.438       .  S
C1111      C1112   1.408       .  A
C1111      H1116   1.083       .  S
C1112      C1368   1.412   1_554  A
C1113      C1367   1.415       .  A
C1113      N1114   1.431       .  S
N1114      O1118   1.261       .  A
N1114      O1119   1.262       .  A
N1117      O1121   1.262       .  A
N1117      O1120   1.262       .  A
C1122      C1378   1.401       .  A
C1122      C1127   1.398       .  A
C1122      H1129   1.084       .  S
C1123      C1377   1.400   1_554  A
C1123      C1124   1.415       .  A
C1124      C1125   1.401       .  A
C1124      N1131   1.430       .  S
C1125      C1126   1.404       .  A
C1125      H1130   1.084       .  S
C1126      C1382   1.414   1_554  A
C1127      C1381   1.414       .  A
C1127      N1128   1.429       .  S
N1128      O1132   1.262       .  A
N1128      O1133   1.261       .  A
N1131      O1135   1.262       .  A
N1131      O1134   1.262       .  A
C1136      C1137   1.402       .  A
C1136      C1141   1.394       .  A
C1136      H1143   1.083       .  S
C1137      C1138   1.413       .  A
C1138      C1139   1.407       .  A
C1138      N1145   1.431       .  S
C1139      C1140   1.406       .  A
C1139      H1144   1.084       .  S
C1140      C1141   1.413       .  A
C1141      N1142   1.433       .  S
N1142      O1146   1.262       .  A
N1142      O1402   1.262       .  A
N1145      O1149   1.262       .  A
N1145      O1148   1.261       .  A
O1147      N1397   1.262       .  A
C1150      C1406   1.403       .  A
C1150      C1155   1.397       .  A
C1150      H1157   1.082       .  S
C1151      C1405   1.404       .  A
C1151      C1152   1.413   1_556  A
C1152      C1153   1.410   1_554  A
C1152      N1159   1.429       .  S
C1153      C1409   1.405       .  A
C1153      H1158   1.083   1_556  S
C1154      C1408   1.404       .  A
C1154      C1155   1.407       .  A
C1155      N1156   1.429       .  S
N1156      O1160   1.261       .  A
N1156      O1416   1.262       .  A
N1159      O1163   1.262       .  A
N1159      O1417   1.262       .  A
O1161      N1411   1.260       .  A
O1162      N1414   1.262       .  A
C1164      C1675   1.401       .  A
C1164      C1169   1.394       .  A
C1164      H1171   1.084       .  S
C1165      C1674   1.401       .  A
C1165      C1166   1.418   1_565  A
C1166      C1167   1.414       .  A
C1166      N1173   1.429       .  S
C1167      C1678   1.407   1_545  A
C1167      H1172   1.084       .  S
C1168      C1677   1.406       .  A
C1168      C1169   1.412       .  A
C1169      N1170   1.428       .  S
N1170      O1174   1.261       .  A
N1170      O1685   1.262       .  A
N1173      O1177   1.262       .  A
N1173      O1686   1.262       .  A
O1175      N1680   1.262       .  A
O1176      N1683   1.262       .  A
C1178      C1179   1.410       .  A
C1178      C1183   1.418       .  A
C1178      H1695   1.083       .  S
C1179      C1180   1.421       .  A
C1180      C1181   1.395       .  A
C1180      N1187   1.429       .  S
C1181      C1182   1.401       .  A
C1181      H1186   1.084       .  S
C1182      C1183   1.418       .  A
C1183      N1694   1.428       .  S
N1184      C1693   1.430   1_545  S
N1184      O1188   1.262       .  A
N1184      O1699   1.262   1_545  A
H1185      C1688   1.083   1_545  S
N1187      O1191   1.262       .  A
N1187      O1190   1.262       .  A
O1189      N1694   1.262       .  A
C1192      C1703   1.403       .  A
C1192      C1197   1.402       .  A
C1192      H1199   1.084       .  S
C1193      C1702   1.397   1_545  A
C1193      C1194   1.411       .  A
C1194      C1195   1.400       .  A
C1194      N1201   1.427       .  S
C1195      C1706   1.400       .  A
C1195      H1200   1.084       .  S
C1196      C1705   1.405       .  A
C1196      C1197   1.415       .  A
C1197      N1198   1.429       .  S
N1198      O1202   1.261       .  A
N1198      O1203   1.262       .  A
N1201      O1205   1.261       .  A
N1201      O1714   1.262       .  A
O1204      N1711   1.262       .  A
C1206      C1207   1.406       .  A
C1206      C1211   1.410       .  A
C1206      H1723   1.084   1_565  S
C1207      C1208   1.413       .  A
C1208      C1209   1.403       .  A
C1208      N1215   1.428       .  S
C1209      C1210   1.406       .  A
C1209      H1214   1.084       .  S
C1210      C1211   1.414       .  A
C1211      N1722   1.426   1_565  S
N1212      C1721   1.427       .  S
N1212      O1216   1.261       .  A
N1212      O1727   1.262       .  A
H1213      C1716   1.083       .  S
N1215      O1219   1.261   1_565  A
N1215      O1218   1.261       .  A
O1217      N1722   1.262       .  A
C1220      C1225   1.411       .  A
C1220      H1227   1.084       .  S
C1221      C1222   1.409       .  A
C1222      C1223   1.392       .  A
C1222      N1229   1.425       .  S
C1223      H1228   1.084       .  S
C1224      C1225   1.417       .  A
C1225      N1226   1.428       .  S
N1226      O1230   1.262       .  A
N1226      O1231   1.262       .  A
N1229      O1233   1.261       .  A
N1229      O1232   1.260   1_655  A
C1234      C1235   1.410       .  A
C1234      C1239   1.405       .  A
C1234      H1241   1.084       .  S
C1236      C1237   1.404       .  A
C1236      N1243   1.427       .  S
C1237      H1242   1.084       .  S
C1238      C1239   1.410       .  A
C1239      N1240   1.429       .  S
N1240      O1244   1.262       .  A
N1240      O1245   1.262       .  A
N1243      O1247   1.261       .  A
N1243      O1246   1.262       .  A
C1248      C1249   1.400       .  A
C1248      C1253   1.409       .  A
C1248      H1255   1.081       .  S
C1250      C1251   1.402       .  A
C1250      N1257   1.436       .  S
C1251      C1252   1.398       .  A
C1251      H1256   1.085       .  S
C1253      N1254   1.446       .  S
N1254      O1258   1.263       .  A
N1254      O1259   1.263       .  A
N1257      O1261   1.262       .  A
N1257      O1260   1.263       .  A
C1262      C1263   1.405   1_655  A
C1262      C1267   1.409       .  A
C1262      H1269   1.084       .  S
C1264      C1265   1.399       .  A
C1264      N1271   1.428       .  S
C1265      H1270   1.082       .  S
C1266      C1267   1.416       .  A
C1267      N1268   1.428       .  S
N1268      O1272   1.262       .  A
N1268      O1273   1.262       .  A
N1271      O1275   1.262       .  A
N1271      O1274   1.262       .  A
O1276      C1284   1.274       .  A
O1276     Co1296   1.999   1_545  S
O1277      C1285   1.275       .  A
O1277     Co1297   1.898       .  S
O1278      C1286   1.264       .  A
O1278     Co1298   1.988       .  S
O1279      C1287   1.239       .  A
O1279     Co1299   1.924       .  S
O1280     Co1807   2.000   1_545  S
O1281      C1797   1.264       .  A
O1282      C1285   1.298       .  A
O1282     Co1299   2.090       .  S
O1283      C1284   1.272       .  A
O1283     Co1298   2.002       .  S
C1284      C1521   1.498       .  S
C1285      C1437   1.498       .  S
C1286      C1476   1.480       .  S
C1287      O1791   1.264       .  A
C1287      C1451   1.479       .  S
O1288     Co1806   1.892   1_455  S
O1289      C1812   1.269       .  A
O1290      C1303   1.269   1_545  A
O1290     Co1298   2.010       .  S
O1291      C1304   1.242       .  A
O1291     Co1299   1.934       .  S
O1292      C1304   1.271       .  A
O1292     Co1297   2.037       .  S
O1293      C1303   1.268       .  A
O1293     Co1296   1.987       .  S
O1294      C1301   1.298       .  A
O1294     Co1299   2.081       .  S
O1295      C1302   1.271       .  A
O1295     Co1298   1.992       .  S
Co1296     O1798   1.898   1_655  S
Co1297     O1790   1.996       .  S
Co1297     O1810   1.946       .  S
Co1299     O1810   2.114       .  S
O1300     Co1807   1.943   1_545  S
O1300     Co1809   2.109   1_545  S
C1301      C1504   1.476       .  S
C1302      O1799   1.273       .  A
C1302      C1420   1.483       .  S
C1303      C1462   1.489       .  S
C1304      C1490   1.488       .  S
O1305      C1313   1.275       .  A
O1305     Co1325   1.971       .  S
O1306      C1314   1.255       .  A
O1306     Co1326   1.950       .  S
O1307      C1315   1.256       .  A
O1307     Co1327   2.048       .  S
O1308      C1316   1.304       .  A
O1308     Co1328   2.115       .  S
O1311      C1314   1.274       .  A
O1311     Co1328   2.028       .  S
O1312      C1313   1.286       .  A
O1312     Co1327   2.022       .  S
C1313      C1381   1.482       .  S
C1314      C1493   1.487       .  S
C1315      C1367   1.487       .  S
C1316      C1479   1.485       .  S
O1319      C1332   1.271   1_455  A
O1319     Co1327   1.997   1_455  S
O1320      C1333   1.264       .  A
O1320     Co1328   1.993       .  S
O1321      C1333   1.262       .  A
O1321     Co1326   1.973       .  S
O1322      C1332   1.268       .  A
O1322     Co1325   1.992       .  S
O1323      C1330   1.268       .  A
O1323     Co1328   1.910       .  S
O1324      C1331   1.287       .  A
O1324     Co1327   1.869       .  S
Co1326     O1329   2.020       .  S
Co1328     O1329   2.010       .  S
C1330      C1409   1.484       .  S
C1331      C1507   1.477       .  S
C1332      C1518   1.485   1_655  S
C1333      C1392   1.479   1_556  S
O1334      C1342   1.267       .  A
O1334     Co1354   2.006       .  S
O1335      C1343   1.295   1_554  A
O1335     Co1355   2.050       .  S
O1336      C1344   1.268       .  A
O1336     Co1356   1.902       .  S
O1337      C1345   1.249       .  A
O1337     Co1357   1.994   1_554  S
O1338      C1854   1.295       .  A
O1339     Co1864   2.024       .  S
O1340      C1343   1.280       .  A
O1340     Co1357   1.918       .  S
O1341      C1342   1.264       .  A
O1341     Co1356   2.012       .  S
C1342      C1465   1.498   1_545  S
C1343      C1395   1.483   1_556  S
C1344      O1848   1.295   1_545  A
C1344      C1448   1.471       .  S
C1345      C1364   1.478       .  S
O1346      C1869   1.262   1_545  A
O1347     Co1865   1.996   1_545  S
O1348      C1361   1.264       .  A
O1348     Co1356   1.995       .  S
O1349      C1362   1.255       .  A
O1349     Co1357   1.999       .  S
O1350      C1362   1.252       .  A
O1350     Co1355   1.982   1_556  S
O1351      C1361   1.265       .  A
O1351     Co1354   1.983       .  S
O1352      C1359   1.281       .  A
O1352     Co1357   2.055       .  S
O1353      C1360   1.250       .  A
O1353     Co1356   1.979       .  S
Co1354     O1849   2.021   1_545  S
Co1355     O1857   2.000       .  S
Co1355     O1868   2.241   1_554  S
Co1357     O1868   1.954       .  S
O1358     Co1865   2.240   1_546  S
O1358     Co1867   1.947   1_545  S
C1359      O1856   1.262       .  A
C1359      C1423   1.492       .  S
C1360      C1406   1.485       .  S
C1361      C1378   1.479       .  S
C1362      C1434   1.501       .  S
C1363      C1364   1.400   1_556  A
C1363      C1368   1.397       .  A
C1363      H1370   1.084       .  S
C1365      C1366   1.412       .  A
C1365      N1372   1.434       .  S
C1366      C1367   1.408       .  A
C1366      H1371   1.083       .  S
C1368      N1369   1.429       .  S
N1369      O1373   1.261       .  A
N1369      O1374   1.261       .  A
N1372      O1376   1.261       .  A
N1372      O1375   1.262       .  A
C1377      C1382   1.398       .  A
C1377      H1384   1.084       .  S
C1378      C1379   1.414       .  A
C1379      C1380   1.400       .  A
C1379      N1386   1.430       .  S
C1380      C1381   1.404       .  A
C1380      H1385   1.084       .  S
C1382      N1383   1.428       .  S
N1383      O1387   1.262       .  A
N1383      O1388   1.261       .  A
N1386      O1390   1.262       .  A
N1386      O1389   1.262       .  A
C1391      C1392   1.401       .  A
C1391      C1396   1.394       .  A
C1391      H1398   1.083       .  S
C1392      C1393   1.414   1_554  A
C1393      C1394   1.408       .  A
C1393      N1400   1.430       .  S
C1394      C1395   1.406   1_556  A
C1394      H1399   1.084       .  S
C1395      C1396   1.414       .  A
C1396      N1397   1.433       .  S
N1397      O1401   1.262       .  A
N1400      O1404   1.262       .  A
N1400      O1403   1.261       .  A
C1405      C1410   1.401       .  A
C1405      H1412   1.084       .  S
C1406      C1407   1.413       .  A
C1407      C1408   1.409       .  A
C1407      N1414   1.428       .  S
C1408      H1413   1.083       .  S
C1409      C1410   1.413       .  A
C1410      N1411   1.431       .  S
N1411      O1415   1.262       .  A
N1414      O1418   1.261       .  A
C1419      C1930   1.405       .  A
C1419      C1424   1.398       .  A
C1419      H1426   1.083       .  S
C1420      C1929   1.400   1_545  A
C1420      C1421   1.411       .  A
C1421      C1422   1.408       .  A
C1421      N1428   1.432       .  S
C1422      C1933   1.410   1_545  A
C1422      H1427   1.082       .  S
C1423      C1932   1.408       .  A
C1423      C1424   1.412       .  A
C1424      N1425   1.429       .  S
N1425      O1429   1.262       .  A
N1425      O1940   1.262       .  A
N1428      O1432   1.262       .  A
N1428      O1941   1.262       .  A
O1430      N1935   1.262       .  A
O1431      N1938   1.262       .  A
C1433      C1434   1.408       .  A
C1433      C1438   1.414       .  A
C1433      H1950   1.083       .  S
C1434      C1435   1.421       .  A
C1435      C1436   1.395       .  A
C1435      N1442   1.430       .  S
C1436      C1437   1.400       .  A
C1436      H1441   1.083       .  S
C1437      C1438   1.418       .  A
C1438      N1949   1.428       .  S
N1439      C1948   1.429   1_545  S
N1439      O1443   1.262       .  A
N1439      O1954   1.262   1_545  A
H1440      C1943   1.083   1_545  S
N1442      O1446   1.262       .  A
N1442      O1445   1.262       .  A
O1444      N1949   1.262       .  A
C1447      C1958   1.396       .  A
C1447      C1452   1.393       .  A
C1447      H1454   1.084       .  S
C1448      C1957   1.397   1_545  A
C1448      C1449   1.412       .  A
C1449      C1450   1.402       .  A
C1449      N1456   1.427       .  S
C1450      C1961   1.400       .  A
C1450      H1455   1.084       .  S
C1451      C1960   1.402       .  A
C1451      C1452   1.419       .  A
C1452      N1453   1.430       .  S
N1453      O1457   1.261       .  A
N1453      O1458   1.262       .  A
N1456      O1460   1.262       .  A
N1456      O1969   1.262       .  A
O1459      N1966   1.262       .  A
C1461      C1462   1.406       .  A
C1461      C1466   1.411       .  A
C1461      H1978   1.084       .  S
C1462      C1463   1.412       .  A
C1463      C1464   1.402       .  A
C1463      N1470   1.428       .  S
C1464      C1465   1.406       .  A
C1464      H1469   1.084       .  S
C1465      C1466   1.414       .  A
C1466      N1977   1.427       .  S
N1467      C1976   1.427       .  S
N1467      O1471   1.261       .  A
N1467      O1982   1.262       .  A
H1468      C1971   1.084       .  S
N1470      O1474   1.261   1_565  A
N1470      O1473   1.261       .  A
O1472      N1977   1.262   1_545  A
C1475      C1480   1.413       .  A
C1475      H1482   1.083       .  S
C1476      C1477   1.410       .  A
C1477      C1478   1.394       .  A
C1477      N1484   1.428       .  S
C1478      H1483   1.084       .  S
C1479      C1480   1.418       .  A
C1480      N1481   1.431       .  S
N1481      O1485   1.262       .  A
N1481      O1486   1.262       .  A
N1484      O1488   1.262       .  A
N1484      O1487   1.261       .  A
C1489      C1490   1.415       .  A
C1489      C1494   1.404       .  A
C1489      H1496   1.084       .  S
C1491      C1492   1.402       .  A
C1491      N1498   1.432       .  S
C1492      H1497   1.082       .  S
C1493      C1494   1.405       .  A
C1494      N1495   1.431       .  S
N1495      O1499   1.262       .  A
N1495      O1500   1.262       .  A
N1498      O1502   1.262       .  A
N1498      O1501   1.262       .  A
C1503      C1504   1.397       .  A
C1503      C1508   1.407       .  A
C1503      H1510   1.081       .  S
C1505      C1506   1.406       .  A
C1505      N1512   1.435       .  S
C1506      C1507   1.402       .  A
C1506      H1511   1.083       .  S
C1508      N1509   1.446       .  S
N1509      O1513   1.263       .  A
N1509      O1514   1.262       .  A
N1512      O1516   1.262       .  A
N1512      O1515   1.261       .  A
C1517      C1518   1.404   1_655  A
C1517      C1522   1.409       .  A
C1517      H1524   1.084       .  S
C1519      C1520   1.402       .  A
C1519      N1526   1.428       .  S
C1520      H1525   1.083       .  S
C1521      C1522   1.418       .  A
C1522      N1523   1.428       .  S
N1523      O1527   1.262   1_655  A
N1523      O1528   1.262       .  A
N1526      O1530   1.262       .  A
N1526      O1529   1.261       .  A
O1531      C1539   1.275       .  A
O1531     Co1551   1.996       .  S
O1532      C1540   1.276       .  A
O1532     Co1552   1.909       .  S
O1533      C1541   1.267       .  A
O1533     Co1553   2.004       .  S
O1534      C1542   1.237   1_565  A
O1534     Co1554   1.919       .  S
O1537      C1540   1.298       .  A
O1537     Co1554   2.086       .  S
O1538      C1539   1.275       .  A
O1538     Co1553   2.004       .  S
C1539      C1776   1.497       .  S
C1540      C1692   1.501       .  S
C1541      C1731   1.486       .  S
C1542      C1706   1.474       .  S
O1545      C1558   1.267       .  A
O1545     Co1553   2.003       .  S
O1546      C1559   1.243       .  A
O1546     Co1554   1.929       .  S
O1547      C1559   1.272       .  A
O1547     Co1552   2.038       .  S
O1548      C1558   1.269       .  A
O1548     Co1551   1.994       .  S
O1549      C1556   1.298       .  A
O1549     Co1554   2.086       .  S
O1550      C1557   1.270       .  A
O1550     Co1553   1.998       .  S
C1556      C1759   1.476       .  S
C1557      C1675   1.493       .  S
C1558      C1717   1.493       .  S
C1559      C1745   1.487       .  S
O1560      C1568   1.274   1_556  A
O1560     Co1580   1.968       .  S
O1561      C1569   1.255       .  A
O1561     Co1581   1.949       .  S
O1562      C1570   1.254       .  A
O1562     Co1582   2.040       .  S
O1563      C1571   1.303       .  A
O1563     Co1583   2.112       .  S
O1564      C1825   1.236       .  A
O1565     Co1835   1.874       .  S
O1566      C1569   1.272       .  A
O1566     Co1583   2.021       .  S
O1567      C1568   1.288       .  A
O1567     Co1582   2.026       .  S
C1568      C1636   1.484       .  S
C1569      C1748   1.483       .  S
C1570      O1819   1.234   1_554  A
C1570      C1622   1.483       .  S
C1571      C1734   1.481       .  S
O1572      C1840   1.293       .  A
O1573     Co1836   2.134   1_554  S
O1574      C1587   1.270   1_455  A
O1574     Co1582   1.991   1_455  S
O1575      C1588   1.264       .  A
O1575     Co1583   1.990       .  S
O1576      C1588   1.261       .  A
O1576     Co1581   1.971       .  S
O1577      C1587   1.268       .  A
O1577     Co1580   1.994   1_554  S
O1578      C1585   1.267       .  A
O1578     Co1583   1.909       .  S
O1579      C1586   1.288       .  A
O1579     Co1582   1.869       .  S
Co1580     O1820   1.866       .  S
Co1581     O1828   2.144       .  S
Co1581     O1584   2.019       .  S
Co1583     O1584   2.009       .  S
C1585      O1827   1.294       .  A
C1585      C1664   1.482       .  S
C1586      C1762   1.473       .  S
C1587      C1773   1.484   1_655  S
C1588      C1647   1.477       .  S
O1589      C1597   1.267       .  A
O1589     Co1609   2.008   1_554  S
O1590      C1598   1.296       .  A
O1590     Co1610   2.052       .  S
O1591      C1599   1.270       .  A
O1591     Co1611   1.910       .  S
O1592      C1600   1.249       .  A
O1592     Co1612   1.995       .  S
O1593     Co1865   2.060       .  S
O1594      C1855   1.268   1_556  A
O1595      C1598   1.279       .  A
O1595     Co1612   1.909       .  S
O1596      C1597   1.265       .  A
O1596     Co1611   2.013       .  S
C1597      C1720   1.497       .  S
C1598      C1650   1.478       .  S
C1599      C1703   1.480       .  S
C1600      O1849   1.262       .  A
C1600      C1619   1.479       .  S
O1601     Co1864   1.970       .  S
O1602      C1870   1.255       .  A
O1603      C1616   1.267       .  A
O1603     Co1611   1.999       .  S
O1604      C1617   1.256       .  A
O1604     Co1612   2.003       .  S
O1605      C1617   1.251       .  A
O1605     Co1610   1.987       .  S
O1606      C1616   1.265   1_556  A
O1606     Co1609   1.981       .  S
O1607      C1614   1.279       .  A
O1607     Co1612   2.047       .  S
O1608      C1615   1.250       .  A
O1608     Co1611   1.985       .  S
Co1609     O1856   1.975       .  S
Co1609     O1868   2.083       .  S
Co1610     O1848   2.060       .  S
Co1611     O1868   1.955   1_554  S
O1613     Co1864   2.078       .  S
O1613     Co1866   1.950       .  S
C1614      C1678   1.484       .  S
C1615      O1857   1.257       .  A
C1615      C1661   1.493   1_554  S
C1616      C1633   1.481       .  S
C1617      C1689   1.505       .  S
C1618      C1619   1.401       .  A
C1618      C1623   1.399       .  A
C1618      H1625   1.084       .  S
C1619      C1875   1.412       .  A
C1620      C1874   1.412       .  A
C1620      C1621   1.412       .  A
C1620      N1627   1.436       .  S
C1621      C1622   1.407       .  A
C1621      H1626   1.082       .  S
C1622      C1878   1.412   1_554  A
C1623      C1877   1.412       .  A
C1623      N1624   1.429       .  S
N1624      O1628   1.261       .  A
N1624      O1629   1.261       .  A
N1627      O1631   1.262       .  A
N1627      O1630   1.262       .  A
C1632      C1888   1.400       .  A
C1632      C1637   1.397       .  A
C1632      H1639   1.084       .  S
C1633      C1887   1.402   1_554  A
C1633      C1634   1.413       .  A
C1634      C1635   1.400       .  A
C1634      N1641   1.429       .  S
C1635      C1636   1.405       .  A
C1635      H1640   1.084       .  S
C1636      C1892   1.416   1_554  A
C1637      C1891   1.417       .  A
C1637      N1638   1.430       .  S
N1638      O1642   1.262       .  A
N1638      O1643   1.261       .  A
N1641      O1645   1.261       .  A
N1641      O1644   1.262       .  A
C1646      C1647   1.401       .  A
C1646      C1651   1.394       .  A
C1646      H1653   1.083       .  S
C1647      C1648   1.414       .  A
C1648      C1649   1.407       .  A
C1648      N1655   1.432       .  S
C1649      C1650   1.405       .  A
C1649      H1654   1.084       .  S
C1650      C1651   1.412       .  A
C1651      N1652   1.434       .  S
N1652      O1656   1.262       .  A
N1652      O1912   1.262       .  A
N1655      O1659   1.262       .  A
N1655      O1658   1.261       .  A
O1657      N1907   1.262       .  A
C1660      C1916   1.405       .  A
C1660      C1665   1.399       .  A
C1660      H1667   1.076       .  S
C1661      C1915   1.404       .  A
C1661      C1662   1.415   1_556  A
C1662      C1663   1.413   1_554  A
C1662      N1669   1.428       .  S
C1663      C1919   1.406       .  A
C1663      H1668   1.081   1_556  S
C1664      C1918   1.406       .  A
C1664      C1665   1.409       .  A
C1665      N1666   1.429       .  S
N1666      O1670   1.261       .  A
N1666      O1926   1.260       .  A
N1669      O1673   1.261       .  A
N1669      O1927   1.262       .  A
O1671      N1921   1.262       .  A
O1672      N1924   1.262       .  A
C1674      C1679   1.393       .  A
C1674      H1681   1.083       .  S
C1675      C1676   1.416       .  A
C1676      C1677   1.411       .  A
C1676      N1683   1.428       .  S
C1677      H1682   1.084       .  S
C1678      C1679   1.412       .  A
C1679      N1680   1.428       .  S
N1680      O1684   1.261       .  A
N1683      O1687   1.262       .  A
C1688      C1689   1.408       .  A
C1688      C1693   1.414       .  A
C1689      C1690   1.424       .  A
C1690      C1691   1.400       .  A
C1690      N1697   1.431       .  S
C1691      C1692   1.401       .  A
C1691      H1696   1.084       .  S
C1692      C1693   1.420       .  A
N1694      O1698   1.262       .  A
N1697      O1701   1.262       .  A
N1697      O1700   1.262   1_565  A
C1702      C1707   1.394       .  A
C1702      H1709   1.084       .  S
C1703      C1704   1.410       .  A
C1704      C1705   1.402       .  A
C1704      N1711   1.428       .  S
C1705      H1710   1.084       .  S
C1706      C1707   1.418   1_545  A
C1707      N1708   1.431       .  S
N1708      O1712   1.262       .  A
N1708      O1713   1.262       .  A
N1711      O1715   1.262       .  A
C1716      C1717   1.406       .  A
C1716      C1721   1.409       .  A
C1717      C1718   1.414       .  A
C1718      C1719   1.406       .  A
C1718      N1725   1.429       .  S
C1719      C1720   1.407       .  A
C1719      H1724   1.084       .  S
C1720      C1721   1.413       .  A
N1722      O1726   1.261   1_545  A
N1725      O1729   1.261       .  A
N1725      O1728   1.261       .  A
C1730      C1735   1.410       .  A
C1730      H1737   1.083       .  S
C1731      C1732   1.411       .  A
C1732      C1733   1.394       .  A
C1732      N1739   1.426       .  S
C1733      H1738   1.084       .  S
C1734      C1735   1.417       .  A
C1735      N1736   1.429       .  S
N1736      O1740   1.262       .  A
N1736      O1741   1.262       .  A
N1739      O1743   1.262       .  A
N1739      O1742   1.261       .  A
C1744      C1745   1.415       .  A
C1744      C1749   1.400       .  A
C1744      H1751   1.084       .  S
C1746      C1747   1.401       .  A
C1746      N1753   1.427       .  S
C1747      H1752   1.082       .  S
C1748      C1749   1.404       .  A
C1749      N1750   1.431       .  S
N1750      O1754   1.262       .  A
N1750      O1755   1.262       .  A
N1753      O1757   1.261       .  A
N1753      O1756   1.261       .  A
C1758      C1759   1.398       .  A
C1758      C1763   1.409       .  A
C1758      H1765   1.082       .  S
C1760      C1761   1.403       .  A
C1760      N1767   1.435       .  S
C1761      C1762   1.399       .  A
C1761      H1766   1.084       .  S
C1763      N1764   1.445       .  S
N1764      O1768   1.263       .  A
N1764      O1769   1.262       .  A
N1767      O1771   1.262       .  A
N1767      O1770   1.262       .  A
C1772      C1773   1.405   1_655  A
C1772      C1777   1.409       .  A
C1772      H1779   1.084       .  S
C1774      C1775   1.396       .  A
C1774      N1781   1.428       .  S
C1775      H1780   1.083       .  S
C1776      C1777   1.417       .  A
C1777      N1778   1.429       .  S
N1778      O1782   1.262       .  A
N1778      O1783   1.262       .  A
N1781      O1785   1.262       .  A
N1781      O1784   1.261       .  A
O1786      C1794   1.279       .  A
O1786     Co1806   1.993       .  S
O1787      C1795   1.274       .  A
O1787     Co1807   1.896       .  S
O1788      C1796   1.263       .  A
O1788     Co1808   1.988       .  S
O1789      C1797   1.238   1_565  A
O1789     Co1809   1.923       .  S
O1792      C1795   1.300       .  A
O1792     Co1809   2.096       .  S
O1793      C1794   1.280       .  A
O1793     Co1808   2.005       .  S
C1794      C2031   1.495       .  S
C1795      C1947   1.493       .  S
C1796      C1986   1.474       .  S
C1797      C1961   1.476       .  S
O1800      C1813   1.255       .  A
O1800     Co1808   1.987       .  S
O1801      C1814   1.240       .  A
O1801     Co1809   1.921       .  S
O1802      C1814   1.272       .  A
O1802     Co1807   2.044       .  S
O1803      C1813   1.262       .  A
O1803     Co1806   2.016       .  S
O1804      C1811   1.298       .  A
O1804     Co1809   2.084       .  S
O1805      C1812   1.270       .  A
O1805     Co1808   2.010       .  S
C1811      C2014   1.481       .  S
C1812      C1930   1.506       .  S
C1813      C1972   1.489       .  S
C1814      C2000   1.484       .  S
O1815      C1823   1.272       .  A
O1815     Co1835   1.963       .  S
O1816      C1824   1.255       .  A
O1816     Co1836   1.940       .  S
O1817      C1825   1.254       .  A
O1817     Co1837   2.038       .  S
O1818      C1826   1.304       .  A
O1818     Co1838   2.116       .  S
O1821      C1824   1.272       .  A
O1821     Co1838   2.017       .  S
O1822      C1823   1.288       .  A
O1822     Co1837   2.029       .  S
C1823      C1891   1.483       .  S
C1824      C2003   1.481       .  S
C1825      C1877   1.488       .  S
C1826      C1989   1.497       .  S
O1829      C1842   1.267   1_455  A
O1829     Co1837   1.987   1_455  S
O1830      C1843   1.264       .  A
O1830     Co1838   1.999       .  S
O1831      C1843   1.259       .  A
O1831     Co1836   1.965       .  S
O1832      C1842   1.268       .  A
O1832     Co1835   1.995       .  S
O1833      C1840   1.267       .  A
O1833     Co1838   1.919       .  S
O1834      C1841   1.287       .  A
O1834     Co1837   1.868       .  S
Co1836     O1839   2.028       .  S
Co1838     O1839   2.022       .  S
C1840      C1919   1.486       .  S
C1841      C2017   1.476       .  S
C1842      C2028   1.480   1_655  S
C1843      C1902   1.482   1_556  S
O1844      C1852   1.266       .  A
O1844     Co1864   2.003       .  S
O1845      C1853   1.296   1_554  A
O1845     Co1865   2.052       .  S
O1846      C1854   1.268       .  A
O1846     Co1866   1.904       .  S
O1847      C1855   1.249       .  A
O1847     Co1867   1.992   1_554  S
O1850      C1853   1.281       .  A
O1850     Co1867   1.917       .  S
O1851      C1852   1.267       .  A
O1851     Co1866   2.017       .  S
C1852      C1975   1.499       .  S
C1853      C1905   1.484   1_556  S
C1854      C1958   1.473       .  S
C1855      C1874   1.483       .  S
O1858      C1871   1.263       .  A
O1858     Co1866   1.987       .  S
O1859      C1872   1.254       .  A
O1859     Co1867   2.002       .  S
O1860      C1872   1.252       .  A
O1860     Co1865   1.986   1_556  S
O1861      C1871   1.267       .  A
O1861     Co1864   1.987       .  S
O1862      C1869   1.281       .  A
O1862     Co1867   2.051       .  S
O1863      C1870   1.249       .  A
O1863     Co1866   1.982       .  S
C1869      C1933   1.493       .  S
C1870      C1916   1.489       .  S
C1871      C1888   1.480       .  S
C1872      C1944   1.500       .  S
C1873      C1874   1.399   1_556  A
C1873      C1878   1.402       .  A
C1873      H1880   1.072       .  S
C1875      C1876   1.412       .  A
C1875      N1882   1.436       .  S
C1876      C1877   1.408       .  A
C1876      H1881   1.083       .  S
C1878      N1879   1.432       .  S
N1879      O1883   1.262       .  A
N1879      O1884   1.262       .  A
N1882      O1886   1.262       .  A
N1882      O1885   1.262       .  A
C1887      C1892   1.399       .  A
C1887      H1894   1.084       .  S
C1888      C1889   1.416       .  A
C1889      C1890   1.400       .  A
C1889      N1896   1.429       .  S
C1890      C1891   1.403       .  A
C1890      H1895   1.084       .  S
C1892      N1893   1.430       .  S
N1893      O1897   1.262       .  A
N1893      O1898   1.261       .  A
N1896      O1900   1.262       .  A
N1896      O1899   1.262       .  A
C1901      C1902   1.402       .  A
C1901      C1906   1.394       .  A
C1901      H1908   1.083       .  S
C1902      C1903   1.414   1_554  A
C1903      C1904   1.409       .  A
C1903      N1910   1.431       .  S
C1904      C1905   1.406   1_556  A
C1904      H1909   1.084       .  S
C1905      C1906   1.414       .  A
C1906      N1907   1.434       .  S
N1907      O1911   1.262       .  A
N1910      O1914   1.262       .  A
N1910      O1913   1.262       .  A
C1915      C1920   1.401       .  A
C1915      H1922   1.079       .  S
C1916      C1917   1.413       .  A
C1917      C1918   1.411       .  A
C1917      N1924   1.429       .  S
C1918      H1923   1.077       .  S
C1919      C1920   1.408       .  A
C1920      N1921   1.428       .  S
N1921      O1925   1.261       .  A
N1924      O1928   1.262       .  A
C1929      C1934   1.404       .  A
C1929      H1936   1.080       .  S
C1930      C1931   1.418       .  A
C1931      C1932   1.417       .  A
C1931      N1938   1.428       .  S
C1932      H1937   1.084       .  S
C1933      C1934   1.411       .  A
C1934      N1935   1.424       .  S
N1935      O1939   1.262       .  A
N1938      O1942   1.262       .  A
C1943      C1944   1.408       .  A
C1943      C1948   1.415       .  A
C1944      C1945   1.419       .  A
C1945      C1946   1.396       .  A
C1945      N1952   1.427       .  S
C1946      C1947   1.398       .  A
C1946      H1951   1.084       .  S
C1947      C1948   1.418       .  A
N1949      O1953   1.262       .  A
N1952      O1956   1.261       .  A
N1952      O1955   1.262       .  A
C1957      C1962   1.393       .  A
C1957      H1964   1.084       .  S
C1958      C1959   1.412       .  A
C1959      C1960   1.405       .  A
C1959      N1966   1.429       .  S
C1960      H1965   1.084       .  S
C1961      C1962   1.419   1_545  A
C1962      N1963   1.431       .  S
N1963      O1967   1.261       .  A
N1963      O1968   1.262       .  A
N1966      O1970   1.262       .  A
C1971      C1972   1.406       .  A
C1971      C1976   1.410       .  A
C1972      C1973   1.411       .  A
C1973      C1974   1.404       .  A
C1973      N1980   1.428       .  S
C1974      C1975   1.408       .  A
C1974      H1979   1.084       .  S
C1975      C1976   1.413       .  A
N1977      O1981   1.261       .  A
N1980      O1984   1.262       .  A
N1980      O1983   1.261       .  A
C1985      C1990   1.415       .  A
C1985      H1992   1.083       .  S
C1986      C1987   1.407       .  A
C1987      C1988   1.390       .  A
C1987      N1994   1.426       .  S
C1988      H1993   1.084       .  S
C1989      C1990   1.417       .  A
C1990      N1991   1.428       .  S
N1991      O1995   1.261       .  A
N1991      O1996   1.262       .  A
N1994      O1998   1.262       .  A
N1994      O1997   1.262       .  A
C1999      C2000   1.416       .  A
C1999      C2004   1.401       .  A
C1999      H2006   1.083       .  S
C2001      C2002   1.405       .  A
C2001      N2008   1.429       .  S
C2002      H2007   1.084       .  S
C2003      C2004   1.403       .  A
C2004      N2005   1.430       .  S
N2005      O2009   1.262       .  A
N2005      O2010   1.262       .  A
N2008      O2012   1.262       .  A
N2008      O2011   1.262       .  A
C2013      C2014   1.399       .  A
C2013      C2018   1.410       .  A
C2013      H2020   1.081       .  S
C2015      C2016   1.403       .  A
C2015      N2022   1.435       .  S
C2016      C2017   1.399       .  A
C2016      H2021   1.084       .  S
C2018      N2019   1.445       .  S
N2019      O2023   1.263       .  A
N2019      O2024   1.262       .  A
N2022      O2026   1.262       .  A
N2022      O2025   1.262       .  A
C2027      C2028   1.405   1_655  A
C2027      C2032   1.409       .  A
C2027      H2034   1.084       .  S
C2029      C2030   1.397       .  A
C2029      N2036   1.427       .  S
C2030      H2035   1.083       .  S
C2031      C2032   1.417       .  A
C2032      N2033   1.428       .  S
N2033      O2037   1.262       .  A
N2033      O2038   1.262       .  A
N2036      O2040   1.262       .  A
N2036      O2039   1.261       .  A
