geometry optimzed in LAMMPS
_audit_creation_date              2020-12-01 
_audit_creation_method            'lammps2cif' 
_symmetry_space_group_name_H-M    'P1' 
_symmetry_Int_Tables_number       1 
_symmetry_cell_setting            triclinic 
loop_ 
_symmetry_equiv_pos_as_xyz 
  x,y,z 
_cell_length_a                    47.2953672 
_cell_length_b                    33.585257576811394 
_cell_length_c                    34.1545782235593 
_cell_angle_alpha                 90.85868938027377 
_cell_angle_beta                  89.97021887667303 
_cell_angle_gamma                 89.98278016121833 
loop_ 
_atom_site_label 
_atom_site_type_symbol 
_atom_site_fract_x 
_atom_site_fract_y 
_atom_site_fract_z 
_atom_site_charge 
O1          O  0.17517555  0.26978198  0.02069471    -0.88600
C2          C  0.09890689  0.29925811  0.06728797     0.87400
Mg3        Mg  0.18702874  0.28343000  0.96204973     1.58100
O4          O  0.10828570  0.19815076  0.04452956    -0.88400
O5          O  0.17234959  0.21833834  0.05916324    -0.75700
C6          C  0.07563608  0.22693257  0.85580208     0.92500
O7          O  0.13557103  0.34406512  0.00164121    -0.75500
O8          O  0.09665244  0.25054092  0.85338108    -0.83000
Mg9        Mg  0.15772547  0.31754557  0.05525766     1.58000
C10         C  0.04794871  0.13456855  0.98714899     0.92400
O11         O  0.18080941  0.29686633  0.11062377    -0.81300
H12         H  0.12993783  0.14742599  0.05022352    -0.06600
C13         C  0.06735667  0.26294771  0.96179113     0.87300
O14         O  0.17615167  0.21988590  0.94151572    -0.75800
O15         O  0.12189626  0.28171216  0.06723402    -0.88500
O16         O  0.05174695  0.15623795  0.01755882    -0.81400
C17         C  0.06432996  0.21616109  0.12910672     0.92500
C18         C  0.17629393  0.27628661  0.14099865     0.92300
Mg19       Mg  0.09482950  0.18429938  0.94093789     1.58000
O20         O  0.07186239  0.20513600  0.88559376    -0.81300
O21         O  0.11707970  0.15794852  0.99464783    -0.75500
O22         O  0.09007759  0.22734801  0.13155368    -0.81400
O23         O  0.19426202  0.35805574  0.04295111    -0.83100
O24         O  0.16293781  0.27553800  0.86458929    -0.81400
C25         C  0.11857647  0.16698037  0.03090667     0.86800
O26         O  0.13079089  0.22028971  0.92859202    -0.88500
O27         O  0.07777645  0.23239434  0.97547815    -0.88600
O28         O  0.08053711  0.28389388  0.93706323    -0.75700
Mg29       Mg  0.13031671  0.22495073  0.09262596     1.58000
O30         O  0.05299850  0.20721002  0.09641012    -0.83100
H31         H  0.20610570  0.22936326  0.02420185    -0.06800
O32         O  0.14480456  0.30432750  0.95158851    -0.88300
H33         H  0.12296427  0.35489849  0.94602981    -0.06600
H34         H  0.15495885  0.17226035  0.91905333    -0.06800
C35         C  0.13432838  0.33531475  0.96531687     0.86800
C36         C  0.18554629  0.23919343  0.03437481     0.87300
C37         C  0.15388593  0.20301460  0.92875826     0.87400
H38         H  0.04676150  0.27268365  0.97192153    -0.06800
O39         O  0.07655640  0.28272736  0.05444756    -0.75800
Mg40       Mg  0.12251284  0.27744487  0.90348670     1.58000
H41         H  0.09803448  0.32997906  0.07713636    -0.06800
C42         C  0.20573348  0.36727414  0.01071128     0.92400
O43         O  0.20001678  0.29557821  0.90000330    -0.83000
C44         C  0.18865696  0.28698475  0.86722010     0.92400
O45         O  0.15545898  0.25234552  0.14265615    -0.83000
Mg46       Mg  0.06613081  0.21905498  0.03428020     1.58200
O47         O  0.20265640  0.34612825  0.97971275    -0.81300
O48         O  0.05786304  0.14378925  0.95389425    -0.83000
O49         O  0.42329051  0.77092944  0.02195690    -0.88600
C50         C  0.34805255  0.80116951  0.07105393     0.87400
Mg51       Mg  0.43358104  0.78571770  0.96247472     1.58100
O52         O  0.35663848  0.70029838  0.04755411    -0.88400
O53         O  0.42103545  0.71964783  0.06074009    -0.75700
C54         C  0.32131713  0.72902355  0.85862254     0.92500
O55         O  0.38428384  0.84633300  0.00551426    -0.75500
O56         O  0.34091544  0.75497660  0.85741243    -0.83000
Mg57       Mg  0.40727668  0.81865322  0.05802846     1.58000
C58         C  0.29589271  0.63646354  0.99035634     0.92400
O59         O  0.43103570  0.79738704  0.11332847    -0.81300
H60         H  0.37893333  0.64994133  0.05153858    -0.06600
C61         C  0.31383495  0.76564029  0.96660266     0.87300
O62         O  0.42241255  0.72259692  0.94128768    -0.75800
O63         O  0.37105815  0.78359428  0.07082298    -0.88500
O64         O  0.29961014  0.65773986  0.02117397    -0.81400
C65         C  0.31347434  0.71958285  0.13340494     0.92500
C66         C  0.42611600  0.77721592  0.14395671     0.92300
Mg67       Mg  0.34161526  0.68737178  0.94377108     1.58000
O68         O  0.31795694  0.70702993  0.88840350    -0.81300
O69         O  0.36488322  0.66118027  0.99668117    -0.75500
O70         O  0.33946690  0.72969813  0.13507640    -0.81400
O71         O  0.44438217  0.85791779  0.04448111    -0.83100
O72         O  0.40695478  0.77800866  0.86666613    -0.81400
C73         C  0.36698761  0.66960588  0.03300250     0.86800
O74         O  0.37676601  0.72377384  0.93077422    -0.88500
O75         O  0.32465346  0.73488150  0.97926847    -0.88600
O76         O  0.32649372  0.78735033  0.94202138    -0.75700
Mg77       Mg  0.37939530  0.72653968  0.09549044     1.58000
O78         O  0.30186955  0.70935186  0.10116660    -0.83100
H79         H  0.45406982  0.73014642  0.02426791    -0.06800
O80         O  0.39117695  0.80683655  0.95458080    -0.88300
H81         H  0.36995273  0.85813560  0.95089276    -0.06600
H82         H  0.40043106  0.67584743  0.91852415    -0.06800
C83         C  0.38159949  0.83796065  0.96924786     0.86800
C84         C  0.43377965  0.74020727  0.03521953     0.87300
C85         C  0.39976693  0.70631756  0.92915802     0.87400
H86         H  0.29342013  0.77499438  0.97772646    -0.06800
O87         O  0.32553813  0.78461016  0.05865094    -0.75800
Mg88       Mg  0.36769435  0.78106696  0.90691265     1.58000
H89         H  0.34726949  0.83191706  0.08080180    -0.06800
C90         C  0.45410452  0.86815394  0.01142985     0.92400
O91         O  0.44501802  0.79912499  0.89948869    -0.83400
C92         C  0.43272863  0.78915231  0.86766076     0.92400
O93         O  0.40520342  0.75338036  0.14550030    -0.83000
Mg94       Mg  0.31426540  0.72098738  0.03844435     1.58200
O95         O  0.44916017  0.84806790  0.98027004    -0.81300
O96         O  0.30558517  0.64647016  0.95727133    -0.83000
O97         O  0.42445361  0.22946858  0.47589575    -0.88600
C98         C  0.34915467  0.19736352  0.42913686     0.87400
Mg99       Mg  0.43666672  0.21538098  0.53445274     1.58100
O100        O  0.35660825  0.29874078  0.45134269    -0.88400
O101        O  0.42101010  0.28062407  0.43707545    -0.75700
C102        C  0.32623271  0.27341579  0.64171612     0.92500
O103        O  0.38598546  0.15428361  0.49460431    -0.75500
O104        O  0.34663547  0.24866508  0.64356859    -0.83000
Mg105      Mg  0.40807327  0.18137329  0.44099862     1.58000
C106        C  0.29495502  0.35990273  0.50942945     0.92400
O107        O  0.43113750  0.20327810  0.38628059    -0.81300
H108        H  0.37742162  0.35000427  0.44484554    -0.06600
C109        C  0.31680729  0.23381909  0.53608657     0.87300
O110        O  0.42564562  0.27885480  0.55530766    -0.75800
O111        O  0.37175523  0.21583213  0.42859046    -0.88500
O112        O  0.29867872  0.33781805  0.47930667    -0.81400
C113        C  0.31256924  0.27963227  0.36820901     0.92500
C114        C  0.42694068  0.22359621  0.35566294     0.92300
Mg115      Mg  0.34400273  0.31328741  0.55499094     1.58000
O116        O  0.32201344  0.29406003  0.61127505    -0.81300
O117        O  0.36540595  0.33941050  0.50074450    -0.75500
O118        O  0.33856947  0.26973922  0.36458519    -0.81400
O119        O  0.44531894  0.14203653  0.45300523    -0.83100
O120        O  0.41320527  0.22478838  0.63099666    -0.81400
C121        C  0.36654673  0.33027400  0.46452945     0.86800
O122        O  0.38019682  0.27792763  0.56731026    -0.88500
O123        O  0.32722646  0.26400307  0.52167363    -0.88600
O124        O  0.33014852  0.21325702  0.56091986    -0.75700
Mg125      Mg  0.37919952  0.27287882  0.40317616     1.58000
O126        O  0.30139383  0.28685324  0.40136876    -0.83100
H127        H  0.45467038  0.27094834  0.47258532    -0.06800
O128        O  0.39458079  0.19393289  0.54502668    -0.88300
H129        H  0.37295158  0.14310796  0.54999563    -0.06600
H130        H  0.40396829  0.32618060  0.57760602    -0.06800
C131        C  0.38433869  0.16292132  0.53096669     0.86800
C132        C  0.43436353  0.26037874  0.46222117     0.87300
C133        C  0.40316464  0.29548948  0.56766632     0.87400
H134        H  0.29612266  0.22401644  0.52643414    -0.06800
O135        O  0.32670117  0.21283911  0.44287752    -0.75800
Mg136      Mg  0.37237913  0.22104805  0.59332198     1.58000
H137        H  0.34880457  0.16663852  0.41925441    -0.06800
C138        C  0.45635315  0.13237595  0.48536547     0.92400
O139        O  0.45024329  0.20302248  0.59649815    -0.83000
C140        C  0.43906254  0.21399075  0.62879287     0.92400
O141        O  0.40559987  0.24664753  0.35291065    -0.83000
Mg142      Mg  0.31502334  0.27600762  0.46291608     1.58200
O143        O  0.45236802  0.15283928  0.51658261    -0.81300
O144        O  0.30645484  0.35249472  0.54213064    -0.83000
O145        O  0.17200072  0.72451799  0.48001798    -0.88600
C146        C  0.09600244  0.69799042  0.43255265     0.87400
Mg147      Mg  0.18276869  0.70939736  0.53885171     1.58100
O148        O  0.10688356  0.79819508  0.45690537    -0.88400
O149        O  0.17056608  0.77678246  0.44252569    -0.75700
C150        C  0.07182130  0.76940897  0.64503440     0.92500
O151        O  0.13140882  0.65133242  0.49708695    -0.75500
O152        O  0.09171665  0.74383107  0.64679358    -0.83000
Mg153      Mg  0.15459337  0.67788863  0.44400571     1.58000
C154        C  0.04813080  0.86471974  0.51346295     0.92400
O155        O  0.17864172  0.69893060  0.38877855    -0.81300
H156        H  0.13005752  0.84767073  0.45227011    -0.06600
C157        C  0.06360729  0.73463017  0.53832419     0.87300
O158        O  0.17295165  0.77297141  0.56026426    -0.75800
O159        O  0.11931499  0.71472641  0.43199405    -0.88500
O160        O  0.05137711  0.84242814  0.48335593    -0.81400
C161        C  0.06284457  0.78300212  0.37179898     0.92500
C162        C  0.17506589  0.72144822  0.35935620     0.92300
Mg163      Mg  0.09280369  0.81187135  0.56048010     1.58000
O164        O  0.06875225  0.79174880  0.61542311    -0.81300
O165        O  0.11633234  0.83723780  0.50745322    -0.75500
O166        O  0.08848026  0.77124620  0.36890693    -0.81400
O167        O  0.19047423  0.63645963  0.45662764    -0.83100
O168        O  0.15802525  0.71746817  0.63586449    -0.81400
C169        C  0.11791253  0.82856980  0.47112829     0.86800
O170        O  0.12752092  0.77396344  0.57296358    -0.88500
O171        O  0.07498158  0.76483838  0.52532695    -0.88600
O172        O  0.07604775  0.71238868  0.56264897    -0.75700
Mg173      Mg  0.12874343  0.77206687  0.40838098     1.58000
O174        O  0.05172520  0.79174180  0.40467565    -0.83100
H175        H  0.20373216  0.76377945  0.47783600    -0.06800
O176        O  0.14008704  0.69000993  0.54820242    -0.88300
H177        H  0.11743886  0.63995031  0.55200655    -0.06600
H178        H  0.15254535  0.82081334  0.58372268    -0.06800
C179        C  0.12944319  0.65957922  0.53350435     0.86800
C180        C  0.18310671  0.75495342  0.46712628     0.87300
C181        C  0.15095006  0.79033221  0.57334930     0.87400
H182        H  0.04285165  0.72623463  0.52774578    -0.06800
O183        O  0.07404526  0.71515970  0.44605706    -0.75800
Mg184      Mg  0.11781014  0.71674291  0.59670159     1.58000
H185        H  0.09451508  0.66731228  0.42271976    -0.06800
C186        C  0.20035934  0.62568272  0.48936953     0.92400
O187        O  0.19509191  0.69606336  0.60108030    -0.83000
C188        C  0.18369535  0.70571599  0.63360702     0.92400
O189        O  0.15464849  0.74610335  0.35833765    -0.83000
Mg190      Mg  0.06434497  0.77902214  0.46656190     1.58200
O191        O  0.19680379  0.64621584  0.52065867    -0.81300
O192        O  0.05741486  0.85504113  0.54694505    -0.83000
C193        C  0.00553057  0.95926055  0.53104275    -0.11700
C194        C  0.01262062  0.98089232  0.49764245     0.14900
C195        C  0.03113840  0.96405271  0.46955282     0.01800
C196        C  0.04148504  0.92557394  0.47497257    -0.16000
C197        C  0.03447806  0.90379950  0.50844639    -0.10800
C198        C  0.01607118  0.92085703  0.53664525     0.08500
C199        C  0.49937961  0.02023283  0.49240428     0.09500
S200        S  0.04265149  0.99014057  0.42654465    -0.25200
H201        H  0.05588418  0.91299345  0.45339686     0.19800
S202        S  0.00418813  0.89466599  0.57931045    -0.30900
H203        H  0.49109860  0.97208835  0.55243093     0.10100
C204        C  0.47769173  0.02585852  0.46482240     0.03300
C205        C  0.46481724  0.06326003  0.46220473    -0.13200
C206        C  0.47304987  0.09518331  0.48678072    -0.08800
C207        C  0.49558217  0.08966598  0.51340497     0.06800
C208        C  0.00816052  0.05214159  0.51632365    -0.13900
S209        S  0.46531006  0.98491073  0.43447543    -0.30800
H210        H  0.44746801  0.06718223  0.44195913     0.11000
S211        S  0.00982206  0.12927571  0.54365240    -0.27900
H212        H  0.02513112  0.04780932  0.53714134     0.08200
H213        H  0.00289848  0.85707937  0.56064896     0.26700
H214        H  0.44730398  0.00743137  0.41063673     0.21500
H215        H  0.50685076  0.15873899  0.51503645     0.26800
H216        H  0.04006945  0.02879815  0.44246068     0.15600
C217        C  0.24914098  0.54133494  0.51852111    -0.11700
C218        C  0.23774141  0.50986658  0.49622186     0.14900
C219        C  0.21462783  0.51686149  0.47122726     0.01800
C220        C  0.20367914  0.55529068  0.46865063    -0.16000
C221        C  0.21485681  0.58692056  0.49113475    -0.10800
C222        C  0.23817419  0.57986497  0.51595018     0.08500
C223        C  0.25127587  0.47052354  0.49840490     0.09500
S224        S  0.19805915  0.47812828  0.44209712    -0.25200
H225        H  0.18563690  0.56025565  0.44977885     0.19800
S226        S  0.25580440  0.61882535  0.54336009    -0.30900
H227        H  0.26718805  0.53598446  0.53727939     0.10100
C228        C  0.26887804  0.45622089  0.46807435     0.03300
C229        C  0.28193881  0.41912104  0.47184087    -0.13200
C230        C  0.27788583  0.39623177  0.50545666    -0.08800
C231        C  0.25931355  0.41003467  0.53510624     0.06800
C232        C  0.24654752  0.44732540  0.53151623    -0.13900
S233        S  0.27576093  0.48597612  0.42546305    -0.30800
H234        H  0.29624941  0.40856535  0.44919905     0.11000
S235        S  0.25032084  0.38108237  0.57738301    -0.27900
H236        H  0.23254739  0.45818983  0.55442801     0.08200
H237        H  0.25191482  0.64823434  0.51496232     0.26700
H238        H  0.29158970  0.45717242  0.40466337     0.21500
H239        H  0.25201437  0.34388840  0.55801154     0.26800
H240        H  0.20417912  0.44660658  0.46732460     0.15600
C241        C  0.48662939  0.81592033  0.79018441    -0.11700
C242        C  0.48698619  0.78096165  0.76722312     0.14900
C243        C  0.46739796  0.75034732  0.77521277     0.01800
C244        C  0.44865847  0.75489150  0.80677102    -0.16000
C245        C  0.44932494  0.78903771  0.83099473    -0.10800
C246        C  0.46780395  0.82050503  0.82154793     0.08500
C247        C  0.00835521  0.77747424  0.73562403     0.09500
S248        S  0.96555703  0.70446012  0.74706504    -0.25200
H249        H  0.43438039  0.73072759  0.81361387     0.19800
S250        S  0.46781733  0.86756769  0.84767340    -0.30900
H251        H  0.50112595  0.83987704  0.78351596     0.10100
C252        C  0.00149345  0.78493892  0.69634010     0.03300
C253        C  0.02271858  0.78253070  0.66766351    -0.13200
C254        C  0.05082048  0.77281640  0.67734961    -0.08800
C255        C  0.05758406  0.76586467  0.71706784     0.06800
C256        C  0.03629073  0.76800636  0.74556250    -0.13900
S257        S  0.46572922  0.79783148  0.68280881    -0.30800
H258        H  0.01729180  0.78776315  0.63737938     0.11000
S259        S  0.09301308  0.75602807  0.73376112    -0.27900
H260        H  0.04160614  0.76284355  0.77593674     0.08200
H261        H  0.43894702  0.86680489  0.85758638     0.26700
H262        H  0.47087759  0.80253157  0.64257123     0.21500
H263        H  0.10587871  0.78362233  0.70879313     0.26800
H264        H  0.99358215  0.70416108  0.73349580     0.15600
C265        C  0.48377191  0.81254022  0.21521169    -0.11700
C266        C  0.48447543  0.78106600  0.24169023     0.14900
C267        C  0.46446948  0.75003675  0.23768003     0.01800
C268        C  0.44578496  0.74972705  0.20582698    -0.16000
C269        C  0.44551507  0.78065740  0.17839759    -0.10800
C270        C  0.46426450  0.81321472  0.18436470     0.08500
C271        C  0.00590385  0.78224748  0.27352570     0.09500
S272        S  0.46134982  0.71025175  0.27237679    -0.25200
H273        H  0.43130139  0.72492133  0.20255620     0.19800
S274        S  0.46382510  0.85743507  0.15510214    -0.30900
H275        H  0.99840846  0.83719335  0.21887911     0.10100
C276        C  0.02808158  0.75418135  0.27550380     0.03300
C277        C  0.04717218  0.75590409  0.30705404    -0.13200
C278        C  0.04486923  0.78557924  0.33633735    -0.08800
C279        C  0.02374527  0.81520671  0.33267554     0.06800
C280        C  0.00435095  0.81283320  0.30181869    -0.13900
S281        S  0.03235464  0.71656942  0.23759657    -0.30800
H282        H  0.06348247  0.73345677  0.30948788     0.11000
S283        S  0.02089401  0.85756616  0.36560665    -0.27900
H284        H  0.48787871  0.83509564  0.29975794     0.08200
H285        H  0.43413829  0.86044558  0.15486046     0.26700
H286        H  0.05669737  0.69866537  0.25313454     0.21500
H287        H  0.05018537  0.86150889  0.37178950     0.26800
H288        H  0.47107767  0.73210726  0.30509688     0.15600
C289        C  0.24256407  0.68202910  0.70545310    -0.11700
C290        C  0.23967538  0.71343759  0.73261963     0.14900
C291        C  0.21692695  0.74038177  0.72877651     0.01800
C292        C  0.19795923  0.73571391  0.69753985    -0.16000
C293        C  0.20139328  0.70509643  0.66944166    -0.10800
C294        C  0.22350559  0.67716742  0.67441578     0.08500
C295        C  0.26050002  0.71676180  0.76489633     0.09500
S296        S  0.21125525  0.78181421  0.76211494    -0.25200
H297        H  0.18113877  0.75732209  0.69418459     0.19800
S298        S  0.22797860  0.63383319  0.64322148    -0.30900
H299        H  0.25960532  0.66076386  0.70883073     0.10100
C300        C  0.25367161  0.70552442  0.80327869     0.03300
C301        C  0.27398751  0.70960422  0.83298194    -0.13200
C302        C  0.30129526  0.72429399  0.82519997    -0.08800
C303        C  0.30827144  0.73421913  0.78613538     0.06800
C304        C  0.28775341  0.73074893  0.75669100    -0.13900
S305        S  0.21920638  0.68536453  0.81428790    -0.30800
H306        H  0.26842131  0.70158553  0.86258391     0.11000
S307        S  0.34310857  0.74970209  0.77129816    -0.27900
H308        H  0.29315156  0.73862256  0.72694254     0.08200
H309        H  0.19891703  0.62800679  0.63645367     0.26700
H310        H  0.22356330  0.68057407  0.85468307     0.21500
H311        H  0.35727108  0.72130222  0.79397939     0.26800
H312        H  0.23969978  0.78745401  0.77264631     0.15600
C313        C  0.28225766  0.74313987  0.23478954    -0.11700
C314        C  0.25934584  0.71661079  0.23534718     0.14900
C315        C  0.25505916  0.69055655  0.20316921     0.01800
C316        C  0.27313014  0.69218655  0.17085089    -0.16000
C317        C  0.29588496  0.71909830  0.16959885    -0.10800
C318        C  0.30036823  0.74499915  0.20223574     0.08500
C319        C  0.23864229  0.71890152  0.26794022     0.09500
S320        S  0.22643637  0.65509740  0.20120226    -0.25200
H321        H  0.26933695  0.67198356  0.14637495     0.19800
S322        S  0.32733528  0.78291845  0.20325162    -0.30900
H323        H  0.28535724  0.76362617  0.25923415     0.10100
C324        C  0.24328838  0.69964311  0.30365659     0.03300
C325        C  0.22209951  0.70045326  0.33254940    -0.13200
C326        C  0.19595143  0.71967570  0.32640640    -0.08800
C327        C  0.19135867  0.73817830  0.28978510     0.06800
C328        C  0.21284771  0.73818020  0.26157664    -0.13900
S329        S  0.27587268  0.67299130  0.31184462    -0.30800
H330        H  0.22609421  0.68614744  0.36018781     0.11000
S331        S  0.15832790  0.76065042  0.27584948    -0.27900
H332        H  0.20907767  0.75223433  0.23368373     0.08200
H333        H  0.32215512  0.79548416  0.16478552     0.26700
H334        H  0.26857478  0.65764011  0.34858659     0.21500
H335        H  0.14191331  0.72829739  0.28842279     0.26800
H336        H  0.22570240  0.64764793  0.24156674     0.15600
C337        C  0.00728532  0.21449867  0.79780123    -0.11700
C338        C  0.01692108  0.21928740  0.75937506     0.14900
C339        C  0.04575055  0.22811463  0.75286177     0.01800
C340        C  0.06443832  0.23005946  0.78465573    -0.16000
C341        C  0.05491152  0.22477838  0.82321418    -0.10800
C342        C  0.02571239  0.21791844  0.82969612     0.08500
C343        C  0.49613607  0.21611244  0.72702201     0.09500
S344        S  0.05994695  0.23785358  0.70489929    -0.25200
H345        H  0.08660154  0.23599189  0.77921088     0.19800
S346        S  0.01015982  0.21575185  0.87782875    -0.30900
H347        H  0.48504761  0.20879052  0.80305081     0.10100
C348        C  0.49672517  0.18435227  0.69959639     0.03300
C349        C  0.47748198  0.18399251  0.66829659    -0.13200
C350        C  0.45704019  0.21413474  0.66441655    -0.08800
C351        C  0.45580947  0.24491404  0.69310946     0.06800
C352        C  0.47541762  0.24572021  0.72377158    -0.13900
S353        S  0.52165950  0.14401347  0.70480238    -0.30800
H354        H  0.47834140  0.16011423  0.64667962     0.11000
S355        S  0.43106286  0.28544147  0.69071768    -0.27900
H356        H  0.97483565  0.27003574  0.74495574     0.08200
H357        H  0.02634961  0.24737028  0.89337173     0.26700
H358        H  0.51291125  0.12175722  0.67176263     0.21500
H359        H  0.40782711  0.26000686  0.69585529     0.26800
H360        H  0.03511126  0.25416373  0.68922603     0.15600
C361        C  0.48808083  0.19025848  0.28938165    -0.11700
C362        C  0.48911141  0.22138587  0.26261694     0.14900
C363        C  0.46901542  0.25241161  0.26559410     0.01800
C364        C  0.44905758  0.25224111  0.29595035    -0.16000
C365        C  0.44786821  0.22103330  0.32298495    -0.10800
C366        C  0.46758460  0.18926423  0.31890555     0.08500
C367        C  0.01006312  0.21891970  0.23032656     0.09500
S368        S  0.46737944  0.29277292  0.23136546    -0.25200
H369        H  0.43425859  0.27678587  0.29830190     0.19800
S370        S  0.46730119  0.14550235  0.34886827    -0.30900
H371        H  0.00301363  0.16588928  0.28655258     0.10100
C372        C  0.03308818  0.24539523  0.22772723     0.03300
C373        C  0.05109233  0.24313263  0.19501432    -0.13200
C374        C  0.04670099  0.21461016  0.16504097    -0.08800
C375        C  0.02470796  0.18637659  0.16920837     0.06800
C376        C  0.00658167  0.18911279  0.20161160    -0.13900
S377        S  0.03961300  0.28179940  0.26612082    -0.30800
H378        H  0.06819013  0.26433107  0.19225423     0.11000
S379        S  0.02005809  0.14577573  0.13435601    -0.27900
H380        H  0.48930420  0.16824313  0.20455059     0.08200
H381        H  0.43784186  0.14020664  0.34613310     0.26700
H382        H  0.06429206  0.29806330  0.24983665     0.21500
H383        H  0.99703119  0.12750234  0.15297278     0.26800
H384        H  0.47725259  0.27103476  0.19864469     0.15600
C385        C  0.24704497  0.31459398  0.79595373    -0.11700
C386        C  0.24363984  0.28526514  0.76676764     0.14900
C387        C  0.22085085  0.25821097  0.76936353     0.01800
C388        C  0.20228967  0.26082727  0.80130860    -0.16000
C389        C  0.20627933  0.28930899  0.83137200    -0.10800
C390        C  0.22851115  0.31731094  0.82777632     0.08500
C391        C  0.26463755  0.28341333  0.73461144     0.09500
S392        S  0.21482751  0.21886181  0.73377429    -0.25200
H393        H  0.18538622  0.23920818  0.80358948     0.19800
S394        S  0.23398834  0.35804462  0.86194030    -0.30900
H395        H  0.26422367  0.33580128  0.79371636     0.10100
C396        C  0.25783900  0.29470581  0.69622843     0.03300
C397        C  0.27841478  0.29142308  0.66675639    -0.13200
C398        C  0.30603897  0.27810494  0.67493808    -0.08800
C399        C  0.31309070  0.26922668  0.71414444     0.06800
C400        C  0.29226090  0.27124591  0.74321760    -0.13900
S401        S  0.22319517  0.31411046  0.68495643    -0.30800
H402        H  0.27279713  0.29896676  0.63705110     0.11000
S403        S  0.34847166  0.25766846  0.72963449    -0.27900
H404        H  0.29773386  0.26386776  0.77306601     0.08200
H405        H  0.20504493  0.36490422  0.86882665     0.26700
H406        H  0.22841016  0.32195871  0.64526972     0.21500
H407        H  0.36078756  0.28767845  0.70691414     0.26800
H408        H  0.24323929  0.21346476  0.72288103     0.15600
C409        C  0.23661555  0.30757467  0.20962595    -0.11700
C410        C  0.23468877  0.27838600  0.23829728     0.14900
C411        C  0.21283444  0.24991161  0.23603614     0.01800
C412        C  0.19413868  0.25030102  0.20431996    -0.16000
C413        C  0.19607042  0.27923726  0.17495577    -0.10800
C414        C  0.21749472  0.30878698  0.17843990     0.08500
C415        C  0.25561139  0.27903710  0.27042279     0.09500
S416        S  0.20774089  0.21212903  0.27240129    -0.25200
H417        H  0.17796584  0.22751195  0.20267088     0.19800
S418        S  0.22167778  0.34944572  0.14506746    -0.30900
H419        H  0.25311732  0.32989397  0.21178773     0.10100
C420        C  0.27802882  0.25144889  0.27185717     0.03300
C421        C  0.29714056  0.25315941  0.30330300    -0.13200
C422        C  0.29428779  0.28208083  0.33319879    -0.08800
C423        C  0.27246090  0.31084194  0.33049318     0.06800
C424        C  0.25327769  0.30868893  0.29946111    -0.13900
S425        S  0.28224780  0.21418021  0.23363601    -0.30800
H426        H  0.31383826  0.23122579  0.30523003     0.11000
S427        S  0.26832230  0.35177287  0.36490134    -0.27900
H428        H  0.23640924  0.33045020  0.29778507     0.08200
H429        H  0.19296268  0.36036906  0.14674116     0.26700
H430        H  0.30703662  0.19686287  0.24846937     0.21500
H431        H  0.29746749  0.35739984  0.37112485     0.26800
H432        H  0.21881497  0.23405737  0.30421477     0.15600
C433        C  0.50176166  0.04407111  0.96787343    -0.11700
C434        C  0.00957603  0.02008144  0.99934351     0.14900
C435        C  0.02932622  0.03438428  0.02710214     0.01800
C436        C  0.04044555  0.07258650  0.02316719    -0.16000
C437        C  0.03298267  0.09649454  0.99143212    -0.10800
C438        C  0.01309270  0.08221827  0.96377690     0.08500
C439        C  0.49582861  0.98101552  0.00326832     0.09500
S440        S  0.04150021  0.00528229  0.06779094    -0.25200
H441        H  0.05589117  0.08318858  0.04432571     0.19800
S442        S  0.50031533  0.11182280  0.92388588    -0.30900
H443        H  0.48628957  0.03325812  0.94686489     0.10100
C444        C  0.47520831  0.97454472  0.03217852     0.03300
C445        C  0.46278664  0.93691820  0.03499432    -0.13200
C446        C  0.47026907  0.90568136  0.00913985    -0.08800
C447        C  0.49136965  0.91226834  0.98052878     0.06800
C448        C  0.00363794  0.94996231  0.97763641    -0.13900
S449        S  0.46389865  0.01463180  0.06444740    -0.30800
H450        H  0.44648502  0.93218841  0.05669208     0.11000
S451        S  0.00445146  0.87373482  0.94793030    -0.27900
H452        H  0.01974316  0.95503398  0.95568115     0.08200
H453        H  0.00184882  0.14837295  0.94435033     0.26700
H454        H  0.44300531  0.99315462  0.08445917     0.21500
H455        H  0.50337803  0.84353224  0.97593678     0.26800
H456        H  0.03807034  0.96777419  0.04962814     0.15600
C457        C  0.25855367  0.44745962  0.98311531    -0.11700
C458        C  0.24676137  0.48054719  0.00260388     0.14900
C459        C  0.22247283  0.47575183  0.02597845     0.01800
C460        C  0.21037850  0.43809918  0.02923483    -0.16000
C461        C  0.22162561  0.40498482  0.00906117    -0.10800
C462        C  0.24645594  0.40960440  0.98650096     0.08500
C463        C  0.26038587  0.51972166  0.99897210     0.09500
S464        S  0.20583938  0.51648633  0.05227835    -0.25200
H465        H  0.19136330  0.43493550  0.04664814     0.19800
S466        S  0.26443062  0.36830906  0.96311430    -0.30900
H467        H  0.27756391  0.45106724  0.96579121     0.10100
C468        C  0.27742887  0.53547100  0.02918025     0.03300
C469        C  0.28778342  0.57434565  0.02625694    -0.13200
C470        C  0.28157552  0.59767421  0.99355826    -0.08800
C471        C  0.26430300  0.58169477  0.96336778     0.06800
C472        C  0.25424704  0.54271313  0.96618291    -0.13900
S473        S  0.28634926  0.50573861  0.07105738    -0.30800
H474        H  0.30142913  0.58625323  0.04902359     0.11000
S475        S  0.25323455  0.60991713  0.92153049    -0.27900
H476        H  0.24068744  0.53065733  0.94334834     0.08200
H477        H  0.25756336  0.34052001  0.99203213     0.26700
H478        H  0.30268559  0.53476399  0.09070138     0.21500
H479        H  0.25133908  0.64654244  0.94191006     0.26800
H480        H  0.21212462  0.54608248  0.02498017     0.15600
O481        O  0.67517419  0.26977762  0.02070039    -0.88600
C482        C  0.59891378  0.29923726  0.06733629     0.87400
Mg483      Mg  0.68702433  0.28344022  0.96205944     1.58100
O484        O  0.60828157  0.19813396  0.04454912    -0.88400
O485        O  0.67234949  0.21831725  0.05914922    -0.75700
C486        C  0.57563241  0.22693412  0.85582581     0.92500
O487        O  0.63555679  0.34405054  0.00167159    -0.75500
O488        O  0.59665073  0.25053813  0.85339922    -0.83000
Mg489      Mg  0.65772425  0.31753008  0.05527743     1.58000
C490        C  0.54793152  0.13458286  0.98716553     0.92400
O491        O  0.68082161  0.29684103  0.11062651    -0.81300
H492        H  0.62992214  0.14739905  0.05023867    -0.06600
C493        C  0.56735391  0.26295398  0.96182050     0.87300
O494        O  0.67615127  0.21989524  0.94151879    -0.75800
O495        O  0.62190172  0.28168815  0.06726020    -0.88500
O496        O  0.55173236  0.15624637  0.01757868    -0.81400
C497        C  0.56434685  0.21613418  0.12914327     0.92500
C498        C  0.67631479  0.27624812  0.14099482     0.92300
Mg499      Mg  0.59482258  0.18430474  0.94096185     1.58000
O500        O  0.57185827  0.20514455  0.88562162    -0.81300
O501        O  0.61706960  0.15793634  0.99466363    -0.75500
O502        O  0.59009713  0.22731113  0.13158172    -0.81400
O503        O  0.69425186  0.35805659  0.04297018    -0.83100
O504        O  0.66293780  0.27554015  0.86460302    -0.81400
C505        C  0.61856579  0.16696095  0.03092360     0.86800
O506        O  0.63078765  0.22029371  0.92861664    -0.88500
O507        O  0.57777260  0.23240044  0.97550924    -0.88600
O508        O  0.58053316  0.28389412  0.93708569    -0.75700
Mg509      Mg  0.63032644  0.22492152  0.09263525     1.58000
O510        O  0.55300584  0.20719512  0.09644930    -0.83100
H511        H  0.70610022  0.22935008  0.02418096    -0.06800
O512        O  0.64479854  0.30433354  0.95160460    -0.88300
H513        H  0.62294172  0.35489288  0.94606589    -0.06600
H514        H  0.65495612  0.17226714  0.91906520    -0.06800
C515        C  0.63431392  0.33531037  0.96534472     0.86800
C516        C  0.68554387  0.23918096  0.03436544     0.87300
C517        C  0.65388343  0.20302051  0.92877255     0.87400
H518        H  0.54676019  0.27269372  0.97195259    -0.06800
O519        O  0.57655931  0.28271610  0.05449868    -0.75800
Mg520      Mg  0.62250931  0.27744635  0.90350424     1.58000
H521        H  0.59804612  0.32995340  0.07720030    -0.06800
C522        C  0.70572038  0.36728300  0.01073084     0.92400
O523        O  0.70001212  0.29559990  0.90001505    -0.83000
C524        C  0.68865543  0.28699631  0.86723229     0.92400
O525        O  0.65548233  0.25230323  0.14265394    -0.83000
Mg526      Mg  0.56612830  0.21905237  0.03431435     1.58200
O527        O  0.70264475  0.34613968  0.97973040    -0.81300
O528        O  0.55785010  0.14380311  0.95391316    -0.83000
O529        O  0.92328962  0.77093123  0.02195378    -0.88600
C530        C  0.84805093  0.80118665  0.07104443     0.87400
Mg531      Mg  0.93358751  0.78571049  0.96247245     1.58100
O532        O  0.85663077  0.70030911  0.04756692    -0.88400
O533        O  0.92102890  0.71965579  0.06074422    -0.75700
C534        C  0.82132886  0.72900061  0.85861645     0.92500
O535        O  0.88428471  0.84633224  0.00549433    -0.75500
O536        O  0.84093182  0.75494636  0.85740374    -0.83000
Mg537      Mg  0.90727408  0.81866142  0.05801578     1.58000
C538        C  0.79587963  0.63647591  0.99037437     0.92400
O539        O  0.93103114  0.79740885  0.11331768    -0.81300
H540        H  0.87891863  0.64994722  0.05156411    -0.06600
C541        C  0.81383861  0.76564092  0.96659087     0.87300
O542        O  0.92241817  0.72258578  0.94129319    -0.75800
O543        O  0.87105486  0.78360741  0.07081585    -0.88500
O544        O  0.79959804  0.65775569  0.02118982    -0.81400
C545        C  0.81347255  0.71960805  0.13342014     0.92500
C546        C  0.92611170  0.77724664  0.14395098     0.92300
Mg547      Mg  0.84161409  0.68736427  0.94378203     1.58000
O548        O  0.81796308  0.70701488  0.88840246    -0.81300
O549        O  0.86487447  0.66117937  0.99670225    -0.75500
O550        O  0.83946581  0.72971982  0.13508851    -0.81400
O551        O  0.94438029  0.85791921  0.04447009    -0.83100
O552        O  0.90697410  0.77797718  0.86666223    -0.81400
C553        C  0.86697694  0.66961125  0.03302250     0.86800
O554        O  0.87677138  0.72375875  0.93078172    -0.88500
O555        O  0.82465243  0.73488378  0.97926821    -0.88600
O556        O  0.82650191  0.78734005  0.94200408    -0.75700
Mg557      Mg  0.87939083  0.72655788  0.09549665     1.58000
O558        O  0.80186416  0.70938570  0.10118093    -0.83100
H559        H  0.95406403  0.73014132  0.02426970    -0.06800
O560        O  0.89118477  0.80682886  0.95456784    -0.88300
H561        H  0.86995927  0.85812550  0.95086823    -0.06600
H562        H  0.90043666  0.67582968  0.91854223    -0.06800
C563        C  0.88160470  0.83795454  0.96922839     0.86800
C564        C  0.93377516  0.74020864  0.03522060     0.87300
C565        C  0.89977229  0.70630217  0.92916952     0.87400
H566        H  0.79342365  0.77500254  0.97770760    -0.06800
O567        O  0.82553539  0.78462933  0.05864356    -0.75800
Mg568      Mg  0.86770665  0.78104646  0.90690252     1.58000
H569        H  0.84727065  0.83193579  0.08078699    -0.06800
C570        C  0.95411000  0.86814989  0.01142194     0.92400
O571        O  0.94503153  0.79910972  0.89948799    -0.83400
C572        C  0.93274722  0.78912595  0.86765971     0.92400
O573        O  0.90520064  0.75340897  0.14550007    -0.83000
Mg574      Mg  0.81425971  0.72100465  0.03845022     1.58200
O575        O  0.94916920  0.84806258  0.98026171    -0.81300
O576        O  0.80557627  0.64647352  0.95728844    -0.83000
O577        O  0.92445119  0.22944884  0.47588446    -0.88600
C578        C  0.84914970  0.19735057  0.42913684     0.87400
Mg579      Mg  0.93666261  0.21536367  0.53444143     1.58100
O580        O  0.85661348  0.29872526  0.45134843    -0.88400
O581        O  0.92101440  0.28060350  0.43706384    -0.75700
C582        C  0.82623161  0.27339064  0.64171859     0.92500
O583        O  0.88598639  0.15426032  0.49459440    -0.75500
O584        O  0.84663011  0.24863210  0.64356424    -0.83000
Mg585      Mg  0.90807246  0.18135149  0.44098833     1.58000
C586        C  0.79496564  0.35990018  0.50944850     0.92400
O587        O  0.93113477  0.20325184  0.38626275    -0.81300
H588        H  0.87743079  0.34998629  0.44485480    -0.06600
C589        C  0.81680416  0.23380374  0.53608191     0.87300
O590        O  0.92564241  0.27883528  0.55529793    -0.75800
O591        O  0.87175320  0.21581247  0.42858626    -0.88500
O592        O  0.79868714  0.33782290  0.47931919    -0.81400
C593        C  0.81257143  0.27962190  0.36821724     0.92500
C594        C  0.92693194  0.22356998  0.35564623     0.92300
Mg595      Mg  0.84400550  0.31326721  0.55499764     1.58000
O596        O  0.82201458  0.29404046  0.61128080    -0.81300
O597        O  0.86541099  0.33939199  0.50075231    -0.75500
O598        O  0.83856976  0.26972024  0.36459735    -0.81400
O599        O  0.94532085  0.14201913  0.45299702    -0.83100
O600        O  0.91320167  0.22475995  0.63098620    -0.81400
C601        C  0.86655374  0.33025642  0.46453710     0.86800
O602        O  0.88019504  0.27790241  0.56730968    -0.88500
O603        O  0.82722426  0.26399046  0.52167551    -0.88600
O604        O  0.83014485  0.21323486  0.56091023    -0.75700
Mg605      Mg  0.87920005  0.27286032  0.40317640     1.58000
O606        O  0.80139603  0.28685876  0.40137382    -0.83100
H607        H  0.95467567  0.27091726  0.47256914    -0.06800
O608        O  0.89457724  0.19391266  0.54501557    -0.88300
H609        H  0.87295213  0.14308444  0.54998537    -0.06600
H610        H  0.90396542  0.32615593  0.57760691    -0.06800
C611        C  0.88433790  0.16289899  0.53095633     0.86800
C612        C  0.93436608  0.26035458  0.46220791     0.87300
C613        C  0.90316223  0.29546576  0.56766417     0.87400
H614        H  0.79611931  0.22400420  0.52642694    -0.06800
O615        O  0.82669833  0.21283436  0.44287669    -0.75800
Mg616      Mg  0.87237515  0.22102073  0.59331401     1.58000
H617        H  0.84879452  0.16662480  0.41925654    -0.06800
C618        C  0.95635170  0.13236214  0.48536082     0.92400
O619        O  0.95024110  0.20300490  0.59648328    -0.83000
C620        C  0.93906042  0.21397020  0.62877846     0.92400
O621        O  0.90559211  0.24662454  0.35290392    -0.83000
Mg622      Mg  0.81502468  0.27600548  0.46291988     1.58200
O623        O  0.95236216  0.15282669  0.51657518    -0.81300
O624        O  0.80646349  0.35247994  0.54214742    -0.83000
O625        O  0.67199857  0.72451424  0.48005335    -0.88600
C626        C  0.59600512  0.69797850  0.43258188     0.87400
Mg627      Mg  0.68275680  0.70939585  0.53889219     1.58100
O628        O  0.60687920  0.79818780  0.45692358    -0.88400
O629        O  0.67056368  0.77677690  0.44255811    -0.75700
C630        C  0.57179826  0.76941968  0.64504213     0.92500
O631        O  0.63140765  0.65132607  0.49711878    -0.75500
O632        O  0.59169182  0.74383977  0.64680709    -0.83000
Mg633      Mg  0.65459731  0.67788071  0.44404020     1.58000
C634        C  0.54811910  0.86471926  0.51346328     0.92400
O635        O  0.67864948  0.69891996  0.38881167    -0.81300
H636        H  0.63005243  0.84766367  0.45228490    -0.06600
C637        C  0.56359519  0.73463136  0.53833869     0.87300
O638        O  0.67293787  0.77297160  0.56029878    -0.75800
O639        O  0.61931745  0.71471513  0.43202150    -0.88500
O640        O  0.55136683  0.84242246  0.48335993    -0.81400
C641        C  0.56284520  0.78297591  0.37181454     0.92500
C642        C  0.67507256  0.72143506  0.35938724     0.92300
Mg643      Mg  0.59279040  0.81187629  0.56049194     1.58000
O644        O  0.56873418  0.79175914  0.61542997    -0.81300
O645        O  0.61632370  0.83723765  0.50746749    -0.75500
O646        O  0.58848205  0.77122352  0.36892558    -0.81400
O647        O  0.69048048  0.63645624  0.45667404    -0.83100
O648        O  0.65800216  0.71748858  0.63589672    -0.81400
C649        C  0.61790650  0.82856498  0.47114389     0.86800
O650        O  0.62750508  0.77396740  0.57298357    -0.88500
O651        O  0.57497109  0.76483902  0.52534264    -0.88600
O652        O  0.57603359  0.71238912  0.56266470    -0.75700
Mg653      Mg  0.62874387  0.77205457  0.40840542     1.58000
O654        O  0.55172501  0.79172117  0.40468897    -0.83100
H655        H  0.70372727  0.76378080  0.47787598    -0.06800
O656        O  0.64007429  0.69001164  0.54823188    -0.88300
H657        H  0.61742883  0.63994949  0.55203533    -0.06600
H658        H  0.65252923  0.82081673  0.58374706    -0.06800
C659        C  0.62943471  0.65957768  0.53353447     0.86800
C660        C  0.68310342  0.75495097  0.46716250     0.87300
C661        C  0.65093463  0.79033489  0.57337521     0.87400
H662        H  0.54284055  0.72623619  0.52775686    -0.06800
O663        O  0.57404691  0.71514930  0.44608157    -0.75800
Mg664      Mg  0.61779189  0.71674934  0.59672460     1.58000
H665        H  0.59451870  0.66729849  0.42275439    -0.06800
C666        C  0.70035862  0.62568068  0.48942077     0.92400
O667        O  0.69506878  0.69606062  0.60112450    -0.83000
C668        C  0.68367060  0.70572892  0.63364582     0.92400
O669        O  0.65465402  0.74608819  0.35836829    -0.83000
Mg670      Mg  0.56434040  0.77901383  0.46657616     1.58200
O671        O  0.69679361  0.64621367  0.52070768    -0.81300
O672        O  0.55740333  0.85504661  0.54694710    -0.83000
C673        C  0.50552240  0.95926757  0.53103103    -0.11700
C674        C  0.51261227  0.98089384  0.49762709     0.14900
C675        C  0.53112795  0.96404742  0.46953895     0.01800
C676        C  0.54147092  0.92556675  0.47496162    -0.16000
C677        C  0.53446551  0.90379854  0.50844027    -0.10800
C678        C  0.51606227  0.92086426  0.53663955     0.08500
C679        C  0.99938237  0.02022675  0.49242146     0.09500
S680        S  0.54264624  0.99013330  0.42653298    -0.25200
H681        H  0.55586837  0.91298164  0.45338630     0.19800
S682        S  0.50418598  0.89468665  0.57931647    -0.30900
H683        H  0.99110389  0.97207549  0.55244223     0.10100
C684        C  0.97769893  0.02584821  0.46483228     0.03300
C685        C  0.96482394  0.06324803  0.46220710    -0.13200
C686        C  0.97304972  0.09517243  0.48678545    -0.08800
C687        C  0.99557400  0.08965739  0.51342375     0.06800
C688        C  0.50816637  0.05214781  0.51630039    -0.13900
S689        S  0.96532325  0.98489681  0.43448524    -0.30800
H690        H  0.94747921  0.06716789  0.44195373     0.11000
S691        S  0.50984420  0.12928554  0.54361860    -0.27900
H692        H  0.52514182  0.04781368  0.53711010     0.08200
H693        H  0.50289274  0.85709454  0.56066653     0.26700
H694        H  0.94731522  0.00741205  0.41064444     0.21500
H695        H  0.00684074  0.15873077  0.51506949     0.26800
H696        H  0.54009199  0.02878742  0.44246692     0.15600
C697        C  0.74913669  0.54133901  0.51860628    -0.11700
C698        C  0.73775731  0.50987417  0.49628231     0.14900
C699        C  0.71465596  0.51686805  0.47126583     0.01800
C700        C  0.70370189  0.55529402  0.46868816    -0.16000
C701        C  0.71486071  0.58692160  0.49119383    -0.10800
C702        C  0.73816361  0.57986569  0.51603615     0.08500
C703        C  0.75129989  0.47053628  0.49846183     0.09500
S704        S  0.69810940  0.47813648  0.44210888    -0.25200
H705        H  0.68566980  0.56025760  0.44979748     0.19800
S706        S  0.75576786  0.61882171  0.54348502    -0.30900
H707        H  0.76717354  0.53598909  0.53738347     0.10100
C708        C  0.76891227  0.45624931  0.46813557     0.03300
C709        C  0.78196647  0.41914302  0.47188740    -0.13200
C710        C  0.77790296  0.39623661  0.50548896    -0.08800
C711        C  0.75933103  0.41003275  0.53514248     0.06800
C712        C  0.74656595  0.44732518  0.53156258    -0.13900
S713        S  0.77581589  0.48603296  0.42554981    -0.30800
H714        H  0.79627992  0.40859444  0.44924605     0.11000
S715        S  0.75033975  0.38107249  0.57741461    -0.27900
H716        H  0.73256211  0.45818085  0.55447389     0.08200
H717        H  0.75190188  0.64823550  0.51508589     0.26700
H718        H  0.79169956  0.45727093  0.40477605     0.21500
H719        H  0.75202872  0.34388216  0.55803570     0.26800
H720        H  0.70421909  0.44661138  0.46733713     0.15600
C721        C  0.98665253  0.81588893  0.79018513    -0.11700
C722        C  0.98701931  0.78092308  0.76723469     0.14900
C723        C  0.96743872  0.75030124  0.77523367     0.01800
C724        C  0.94869525  0.75484815  0.80678753    -0.16000
C725        C  0.94934960  0.78900431  0.83099807    -0.10800
C726        C  0.96782363  0.82047568  0.82154478     0.08500
C727        C  0.50832398  0.77750729  0.73561643     0.09500
S728        S  0.46550404  0.70451840  0.74702685    -0.25200
H729        H  0.93442242  0.73068001  0.81363676     0.19800
S730        S  0.96782675  0.86754590  0.84765712    -0.30900
H731        H  0.00114337  0.83985055  0.78351021     0.10100
C732        C  0.50146634  0.78496592  0.69633001     0.03300
C733        C  0.52269415  0.78254945  0.66765814    -0.13200
C734        C  0.55079408  0.77283150  0.67735166    -0.08800
C735        C  0.55755289  0.76588289  0.71707176     0.06800
C736        C  0.53625725  0.76803455  0.74556179    -0.13900
S737        S  0.96575383  0.79780055  0.68282801    -0.30800
H738        H  0.51727122  0.78777901  0.63737218     0.11000
S739        S  0.59297841  0.75603588  0.73377304    -0.27900
H740        H  0.54156892  0.76287438  0.77593773     0.08200
H741        H  0.93895539  0.86677698  0.85756354     0.26700
H742        H  0.97090063  0.80252743  0.64259347     0.21500
H743        H  0.60585111  0.78362618  0.70880775     0.26800
H744        H  0.49353919  0.70419158  0.73349671     0.15600
C745        C  0.98376889  0.81259868  0.21518978    -0.11700
C746        C  0.98447516  0.78113168  0.24167649     0.14900
C747        C  0.96446640  0.75010434  0.23768184     0.01800
C748        C  0.94578040  0.74978288  0.20583110    -0.16000
C749        C  0.94550971  0.78070267  0.17839102    -0.10800
C750        C  0.96425765  0.81326400  0.18434681     0.08500
C751        C  0.50589776  0.78218142  0.27354795     0.09500
S752        S  0.96134495  0.71033711  0.27239770    -0.25200
H753        H  0.93129621  0.72497654  0.20257089     0.19800
S754        S  0.96381037  0.85747838  0.15507539    -0.30900
H755        H  0.49841080  0.83713422  0.21891104     0.10100
C756        C  0.52808565  0.75413089  0.27552256     0.03300
C757        C  0.54717729  0.75586508  0.30707145    -0.13200
C758        C  0.54486791  0.78554058  0.33635357    -0.08800
C759        C  0.52373364  0.81515392  0.33269407     0.06800
C760        C  0.50433631  0.81276512  0.30184211    -0.13900
S761        S  0.53237049  0.71652437  0.23761319    -0.30800
H762        H  0.56349325  0.73342580  0.30950515     0.11000
S763        S  0.52087432  0.85751730  0.36561905    -0.27900
H764        H  0.98790003  0.83517325  0.29973343     0.08200
H765        H  0.93412302  0.86047913  0.15483310     0.26700
H766        H  0.55677877  0.69872768  0.25307617     0.21500
H767        H  0.55016559  0.86147929  0.37179133     0.26800
H768        H  0.97106929  0.73221135  0.30510806     0.15600
C769        C  0.74251707  0.68200829  0.70550710    -0.11700
C770        C  0.73967112  0.71346441  0.73262857     0.14900
C771        C  0.71695126  0.74045213  0.72876017     0.01800
C772        C  0.69797284  0.73578360  0.69753569    -0.16000
C773        C  0.70136693  0.70511759  0.66947990    -0.10800
C774        C  0.72344588  0.67714424  0.67448544     0.08500
C775        C  0.76050074  0.71677978  0.76489839     0.09500
S776        S  0.71132483  0.78193136  0.76205704    -0.25200
H777        H  0.68117599  0.75742379  0.69415552     0.19800
S778        S  0.72785622  0.63375200  0.64335209    -0.30900
H779        H  0.75953332  0.66070793  0.70890948     0.10100
C780        C  0.75367956  0.70551561  0.80327419     0.03300
C781        C  0.77400022  0.70957604  0.83297338    -0.13200
C782        C  0.80130554  0.72427660  0.82519341    -0.08800
C783        C  0.80827420  0.73422964  0.78613271     0.06800
C784        C  0.78775114  0.73077712  0.75669282    -0.13900
S785        S  0.71921442  0.68535400  0.81427965    -0.30800
H786        H  0.76843835  0.70153728  0.86257130     0.11000
S787        S  0.84310747  0.74972710  0.77129312    -0.27900
H788        H  0.79314317  0.73867095  0.72694772     0.08200
H789        H  0.69878732  0.62800579  0.63657944     0.26700
H790        H  0.72357984  0.68052574  0.85466811     0.21500
H791        H  0.85727518  0.72131056  0.79394824     0.26800
H792        H  0.73977238  0.78751120  0.77260151     0.15600
C793        C  0.78226939  0.74312488  0.23482511    -0.11700
C794        C  0.75935465  0.71660037  0.23537499     0.14900
C795        C  0.75506680  0.69055581  0.20319038     0.01800
C796        C  0.77313195  0.69220130  0.17086664    -0.16000
C797        C  0.79588786  0.71911172  0.16961969    -0.10800
C798        C  0.80038015  0.74499141  0.20227123     0.08500
C799        C  0.73864961  0.71888463  0.26796778     0.09500
S800        S  0.72645185  0.65508502  0.20122672    -0.25200
H801        H  0.76933521  0.67200792  0.14638412     0.19800
S802        S  0.82736505  0.78288511  0.20331354    -0.30900
H803        H  0.78537347  0.76359897  0.25927852     0.10100
C804        C  0.74328479  0.69959640  0.30367092     0.03300
C805        C  0.72209551  0.70040712  0.33256374    -0.13200
C806        C  0.69595734  0.71966143  0.32643462    -0.08800
C807        C  0.69137478  0.73819335  0.28982477     0.06800
C808        C  0.71286428  0.73819196  0.26161631    -0.13900
S809        S  0.77585576  0.67290680  0.31184104    -0.30800
H810        H  0.72608252  0.68607662  0.36019160     0.11000
S811        S  0.65835753  0.76071444  0.27590402    -0.27900
H812        H  0.70910199  0.75226959  0.23373309     0.08200
H813        H  0.82218818  0.79548738  0.16485881     0.26700
H814        H  0.76855223  0.65754372  0.34857588     0.21500
H815        H  0.64192542  0.72836229  0.28843717     0.26800
H816        H  0.72574871  0.64760221  0.24158591     0.15600
C817        C  0.50728201  0.21446740  0.79783021    -0.11700
C818        C  0.51691341  0.21927395  0.75940442     0.14900
C819        C  0.54573904  0.22812444  0.75289039     0.01800
C820        C  0.56442894  0.23007014  0.78468159    -0.16000
C821        C  0.55490647  0.22477433  0.82323985    -0.10800
C822        C  0.52570979  0.21789444  0.82972362     0.08500
C823        C  0.99614478  0.21612358  0.72699174     0.09500
S824        S  0.55992567  0.23790032  0.70493053    -0.25200
H825        H  0.58658965  0.23601912  0.77923498     0.19800
S826        S  0.51015948  0.21571687  0.87785697    -0.30900
H827        H  0.98504871  0.20883733  0.80302056     0.10100
C828        C  0.99671981  0.18434254  0.69958880     0.03300
C829        C  0.97747250  0.18397192  0.66829384    -0.13200
C830        C  0.95704109  0.21412512  0.66439737    -0.08800
C831        C  0.95582675  0.24492997  0.69306408     0.06800
C832        C  0.97543834  0.24574571  0.72372177    -0.13900
S833        S  0.02164170  0.14399201  0.70481754    -0.30800
H834        H  0.97832055  0.16007731  0.64669341     0.11000
S835        S  0.93109912  0.28547811  0.69063771    -0.27900
H836        H  0.47480318  0.26999289  0.74502419     0.08200
H837        H  0.52633700  0.24734914  0.89339771     0.26700
H838        H  0.01288053  0.12171573  0.67179733     0.21500
H839        H  0.90785027  0.26007298  0.69580159     0.26800
H840        H  0.53508590  0.25422534  0.68928386     0.15600
C841        C  0.98805861  0.19023563  0.28933612    -0.11700
C842        C  0.98908515  0.22136773  0.26257565     0.14900
C843        C  0.96898627  0.25238892  0.26555999     0.01800
C844        C  0.94903428  0.25221504  0.29592339    -0.16000
C845        C  0.94785153  0.22100632  0.32295749    -0.10800
C846        C  0.96756631  0.18923662  0.31886606     0.08500
C847        C  0.51008861  0.21892362  0.23036882     0.09500
S848        S  0.96733881  0.29274788  0.23132994    -0.25200
H849        H  0.93423464  0.27675849  0.29828104     0.19800
S850        S  0.96728473  0.14546908  0.34882081    -0.30900
H851        H  0.50303527  0.16591071  0.28660494     0.10100
C852        C  0.53312368  0.24538144  0.22777082     0.03300
C853        C  0.55112711  0.24310587  0.19505782    -0.13200
C854        C  0.54672512  0.21458648  0.16508437    -0.08800
C855        C  0.52472505  0.18636484  0.16925517     0.06800
C856        C  0.50659843  0.18911597  0.20165674    -0.13900
S857        S  0.53966034  0.28178114  0.26616445    -0.30800
H858        H  0.56823127  0.26429397  0.19229635     0.11000
S859        S  0.52006655  0.14576076  0.13440902    -0.27900
H860        H  0.98929420  0.16822875  0.20450442     0.08200
H861        H  0.93782370  0.14018335  0.34610241     0.26700
H862        H  0.56435537  0.29801043  0.24989260     0.21500
H863        H  0.49704291  0.12749150  0.15303747     0.26800
H864        H  0.97720000  0.27100469  0.19860518     0.15600
C865        C  0.74705543  0.31459050  0.79597398    -0.11700
C866        C  0.74364955  0.28526311  0.76678680     0.14900
C867        C  0.72085532  0.25821666  0.76937736     0.01800
C868        C  0.70229197  0.26083599  0.80132064    -0.16000
C869        C  0.70628120  0.28931718  0.83138488    -0.10800
C870        C  0.72851692  0.31731416  0.82779164     0.08500
C871        C  0.76464706  0.28341056  0.73462917     0.09500
S872        S  0.71482364  0.21887781  0.73377944    -0.25200
H873        H  0.68538534  0.23922146  0.80359767     0.19800
S874        S  0.73399158  0.35805331  0.86194975    -0.30900
H875        H  0.76423669  0.33579397  0.79373934     0.10100
C876        C  0.75785173  0.29472704  0.69625230     0.03300
C877        C  0.77842346  0.29143581  0.66677508    -0.13200
C878        C  0.80604183  0.27808603  0.67494598    -0.08800
C879        C  0.81309236  0.26918663  0.71414811     0.06800
C880        C  0.79226554  0.27121397  0.74322592    -0.13900
S881        S  0.72321648  0.31417089  0.68499550    -0.30800
H882        H  0.77280681  0.29899777  0.63707418     0.11000
S883        S  0.84846979  0.25759099  0.72962702    -0.27900
H884        H  0.79773716  0.26381825  0.77307030     0.08200
H885        H  0.70504744  0.36491808  0.86882523     0.26700
H886        H  0.72843314  0.32203677  0.64531301     0.21500
H887        H  0.86079425  0.28760822  0.70692470     0.26800
H888        H  0.74323091  0.21348686  0.72286142     0.15600
C889        C  0.73662909  0.30754254  0.20962833    -0.11700
C890        C  0.73471631  0.27833354  0.23828169     0.14900
C891        C  0.71287900  0.24983492  0.23600012     0.01800
C892        C  0.69418356  0.25022615  0.20428485    -0.16000
C893        C  0.69609768  0.27918794  0.17494332    -0.10800
C894        C  0.71750805  0.30875542  0.17844316     0.08500
C895        C  0.75563179  0.27899363  0.27041459     0.09500
S896        S  0.70780381  0.21202338  0.27234109    -0.25200
H897        H  0.67802305  0.22742063  0.20262056     0.19800
S898        S  0.72167091  0.34943848  0.14509436    -0.30900
H899        H  0.75311866  0.32987840  0.21180513     0.10100
C900        C  0.77804809  0.25140508  0.27186672     0.03300
C901        C  0.79715177  0.25312507  0.30332025    -0.13200
C902        C  0.79429348  0.28205751  0.33320448    -0.08800
C903        C  0.77246811  0.31081813  0.33048186     0.06800
C904        C  0.75329172  0.30865492  0.29944288    -0.13900
S905        S  0.78227748  0.21412499  0.23365833    -0.30800
H906        H  0.81384812  0.23119090  0.30526169     0.11000
S907        S  0.76832367  0.35176070  0.36487508    -0.27900
H908        H  0.73642394  0.33041593  0.29775307     0.08200
H909        H  0.69295093  0.36033495  0.14677601     0.26700
H910        H  0.80707979  0.19684087  0.24848652     0.21500
H911        H  0.79746789  0.35739091  0.37110456     0.26800
H912        H  0.71885543  0.23395055  0.30417064     0.15600
C913        C  0.00178958  0.04404381  0.96786726    -0.11700
C914        C  0.50955205  0.02009964  0.99934128     0.14900
C915        C  0.52930742  0.03439336  0.02709706     0.01800
C916        C  0.54042650  0.07259606  0.02317026    -0.16000
C917        C  0.53296062  0.09651265  0.99144340    -0.10800
C918        C  0.51306636  0.08224571  0.96378952     0.08500
C919        C  0.99585216  0.98099816  0.00327449     0.09500
S920        S  0.54149075  0.00527655  0.06776978    -0.25200
H921        H  0.55587598  0.08319073  0.04432685     0.19800
S922        S  0.00034425  0.11178379  0.92386308    -0.30900
H923        H  0.98632086  0.03322411  0.94685711     0.10100
C924        C  0.97521917  0.97453779  0.03216974     0.03300
C925        C  0.96279055  0.93691551  0.03498087    -0.13200
C926        C  0.97027973  0.90567253  0.00913744    -0.08800
C927        C  0.99139478  0.91224739  0.98054457     0.06800
C928        C  0.50360639  0.94998704  0.97761717    -0.13900
S929        S  0.96390192  0.01463293  0.06442364    -0.30800
H930        H  0.94647826  0.93219395  0.05666517     0.11000
S931        S  0.50441714  0.87376690  0.94789471    -0.27900
H932        H  0.51970173  0.95506678  0.95564995     0.08200
H933        H  0.50182938  0.14840735  0.94437973     0.26700
H934        H  0.94301250  0.99315607  0.08444354     0.21500
H935        H  0.00339068  0.84350511  0.97597605     0.26800
H936        H  0.53807024  0.96777733  0.04958506     0.15600
C937        C  0.75851927  0.44748767  0.98311341    -0.11700
C938        C  0.74673408  0.48056770  0.00262288     0.14900
C939        C  0.72246109  0.47575946  0.02602618     0.01800
C940        C  0.71037041  0.43810362  0.02928037    -0.16000
C941        C  0.72160919  0.40499756  0.00908364    -0.10800
C942        C  0.74642902  0.40962842  0.98650396     0.08500
C943        C  0.76035631  0.51974430  0.99899144     0.09500
S944        S  0.70584605  0.51647879  0.05237240    -0.25200
H945        H  0.69136544  0.43493086  0.04671333     0.19800
S946        S  0.76440353  0.36834054  0.96310431    -0.30900
H947        H  0.77752063  0.45110345  0.96577234     0.10100
C948        C  0.77742299  0.53547544  0.02918264     0.03300
C949        C  0.78777990  0.57434929  0.02626281    -0.13200
C950        C  0.78155613  0.59769184  0.99357995    -0.08800
C951        C  0.76426297  0.58172964  0.96340393     0.06800
C952        C  0.75419984  0.54275111  0.96621862    -0.13900
S953        S  0.78637137  0.50571959  0.07103212    -0.30800
H954        H  0.80144074  0.58624500  0.04901784     0.11000
S955        S  0.75318097  0.60996978  0.92158509    -0.27900
H956        H  0.74062467  0.53070819  0.94339557     0.08200
H957        H  0.75755464  0.34055031  0.99202947     0.26700
H958        H  0.80277394  0.53470329  0.09062787     0.21500
H959        H  0.75131683  0.64659497  0.94197031     0.26800
H960        H  0.71212769  0.54609985  0.02509897     0.15600
loop_ 
_geom_bond_atom_site_label_1 
_geom_bond_atom_site_label_2 
_geom_bond_distance 
_geom_bond_site_symmetry_2 
_ccdc_geom_bond_type 
O1           Mg3   2.136   1_554  S
O1           Mg9   2.142       .  S
O1           C36   1.236       .  S
C2           O15   1.237       .  S
C2           O39   1.269       .  A
C2           H41   1.081       .  S
Mg3          O32   2.148       .  S
Mg3          O47   2.304       .  S
Mg3          O43   2.249       .  S
Mg3          O14   2.295       .  S
O4          Mg46   2.144       .  S
O4          Mg29   2.134       .  S
O4           C25   1.239       .  S
O5           C36   1.271       .  A
O5          Mg29   2.302       .  S
C6            O8   1.275       .  A
C6           O20   1.275       .  A
C6          C341   1.484       .  S
O7           C35   1.272   1_554  A
O7           Mg9   2.301       .  S
O8          Mg40   2.280       .  S
Mg9          O15   2.122       .  S
Mg9          O23   2.243       .  S
Mg9          O11   2.300       .  S
C10          O48   1.271       .  A
C10          O16   1.272   1_556  A
C10         C437   1.471       .  S
O11          C18   1.273       .  A
H12          C25   1.081       .  S
C13          O27   1.236       .  S
C13          O28   1.271       .  A
C13          H38   1.082       .  S
O14          C37   1.270       .  A
O15         Mg29   2.143       .  S
O16         Mg46   2.281       .  S
C17          O30   1.271       .  A
C17          O22   1.277       .  A
C17         C374   1.485       .  S
C18          O45   1.274       .  A
C18         C413   1.492       .  S
Mg19         O26   2.132       .  S
Mg19         O27   2.143       .  S
Mg19         O20   2.299       .  S
Mg19         O21   2.303       .  S
Mg19         O48   2.263       .  S
O21          C25   1.273   1_556  A
O22         Mg29   2.322       .  S
O23          C42   1.270       .  A
O24          C44   1.279       .  A
O24         Mg40   2.328       .  S
O26         Mg40   2.150       .  S
O26          C37   1.237       .  S
O27         Mg46   2.136   1_556  S
O28         Mg40   2.301       .  S
Mg29         O45   2.266       .  S
O30         Mg46   2.252       .  S
H31          C36   1.082       .  S
O32         Mg40   2.141       .  S
O32          C35   1.238       .  S
H33          C35   1.081       .  S
H34          C37   1.081       .  S
O39         Mg46   2.291       .  S
C42          O47   1.274   1_554  A
C42         C461   1.475       .  S
O43          C44   1.271       .  A
C44         C389   1.484       .  S
O49         Mg51   2.154   1_554  S
O49         Mg57   2.145       .  S
O49          C84   1.237       .  S
C50          O63   1.238       .  S
C50          O87   1.271       .  A
C50          H89   1.081       .  S
Mg51         O80   2.146       .  S
Mg51         O95   2.294       .  S
Mg51         O91   2.270       .  S
Mg51         O62   2.292       .  S
O52         Mg94   2.145       .  S
O52         Mg77   2.139       .  S
O52          C73   1.238       .  S
O53          C84   1.272       .  A
O53         Mg77   2.309       .  S
C54          O56   1.274       .  A
C54          O68   1.276       .  A
C54         C302   1.490       .  S
O55          C83   1.272   1_554  A
O55         Mg57   2.305       .  S
O56         Mg88   2.278       .  S
Mg57         O63   2.128       .  S
Mg57         O71   2.248       .  S
Mg57         O59   2.320       .  S
C58          O96   1.269       .  A
C58          O64   1.276   1_556  A
C58         C470   1.474       .  S
O59          C66   1.276       .  A
H60          C73   1.081       .  S
C61          O75   1.237       .  S
C61          O76   1.270       .  A
C61          H86   1.082       .  S
O62          C85   1.270       .  A
O63         Mg77   2.141       .  S
O64         Mg94   2.303       .  S
C65          O78   1.273       .  A
C65          O70   1.277       .  A
C65         C317   1.490       .  S
C66          O93   1.274       .  A
C66         C269   1.495       .  S
Mg67         O74   2.115       .  S
Mg67         O75   2.145       .  S
Mg67         O68   2.303       .  S
Mg67         O69   2.302       .  S
Mg67         O96   2.241       .  S
O69          C73   1.272   1_556  A
O70         Mg77   2.323       .  S
O71          C90   1.271       .  A
O72          C92   1.276       .  A
O72         Mg88   2.311       .  S
O74         Mg88   2.144       .  S
O74          C85   1.236       .  S
O75         Mg94   2.138   1_556  S
O76         Mg88   2.295       .  S
Mg77         O93   2.275       .  S
O78         Mg94   2.260       .  S
H79          C84   1.082       .  S
O80         Mg88   2.143       .  S
O80          C83   1.238       .  S
H81          C83   1.081       .  S
H82          C85   1.081       .  S
O87         Mg94   2.299       .  S
C90          O95   1.273   1_554  A
C90         C446   1.477       .  S
O91          C92   1.273       .  A
C92         C245   1.478       .  S
O97         Mg99   2.142       .  S
O97        Mg105   2.139       .  S
O97         C132   1.237       .  S
C98         O111   1.236       .  S
C98         O135   1.269       .  A
C98         H137   1.081       .  S
Mg99        O128   2.149       .  S
Mg99        O143   2.301       .  S
Mg99        O139   2.259       .  S
Mg99        O110   2.297       .  S
O100       Mg142   2.149       .  S
O100       Mg125   2.135       .  S
O100        C121   1.238       .  S
O101        C132   1.271       .  A
O101       Mg125   2.305       .  S
C102        O104   1.276       .  A
C102        O116   1.274       .  A
C102        C398   1.489       .  S
O103        C131   1.273       .  A
O103       Mg105   2.306       .  S
O104       Mg136   2.289       .  S
Mg105       O111   2.117       .  S
Mg105       O119   2.243       .  S
Mg105       O107   2.294       .  S
C106        O144   1.270       .  A
C106        O112   1.271       .  A
C106        C230   1.471       .  S
O107        C114   1.273       .  A
H108        C121   1.081       .  S
C109        O123   1.236       .  S
C109        O124   1.270       .  A
C109        H134   1.082       .  S
O110        C133   1.270       .  A
O111       Mg125   2.144       .  S
O112       Mg142   2.277       .  S
C113        O126   1.270       .  A
C113        O118   1.279       .  A
C113        C422   1.479       .  S
C114        O141   1.276       .  A
C114        C365   1.493       .  S
Mg115       O122   2.129       .  S
Mg115       O123   2.147       .  S
Mg115       O116   2.287       .  S
Mg115       O117   2.297       .  S
Mg115       O144   2.258       .  S
O117        C121   1.271       .  A
O118       Mg125   2.332       .  S
O119        C138   1.269       .  A
O120        C140   1.277       .  A
O120       Mg136   2.323       .  S
O122       Mg136   2.151       .  S
O122        C133   1.236       .  S
O123       Mg142   2.133       .  S
O124       Mg136   2.297       .  S
Mg125       O141   2.288       .  S
O126       Mg142   2.234       .  S
H127        C132   1.082       .  S
O128       Mg136   2.146       .  S
O128        C131   1.239       .  S
H129        C131   1.081       .  S
H130        C133   1.081       .  S
O135       Mg142   2.287       .  S
C138        O143   1.274       .  A
C138        C206   1.479       .  S
O139        C140   1.272       .  A
C140        C350   1.485       .  S
O145       Mg147   2.142       .  S
O145       Mg153   2.142       .  S
O145        C180   1.236       .  S
C146        O159   1.238       .  S
C146        O183   1.271       .  A
C146        H185   1.081       .  S
Mg147       O176   2.146       .  S
Mg147       O191   2.300       .  S
Mg147       O187   2.255       .  S
Mg147       O158   2.294       .  S
O148       Mg190   2.140       .  S
O148       Mg173   2.131       .  S
O148        C169   1.239       .  S
O149        C180   1.270       .  A
O149       Mg173   2.301       .  S
C150        O152   1.276       .  A
C150        O164   1.277       .  A
C150        C254   1.488       .  S
O151        C179   1.274       .  A
O151       Mg153   2.309       .  S
O152       Mg184   2.287       .  S
Mg153       O159   2.121       .  S
Mg153       O167   2.240       .  S
Mg153       O155   2.321       .  S
C154        O192   1.272       .  A
C154        O160   1.272       .  A
C154        C197   1.475       .  S
O155        C162   1.278       .  A
H156        C169   1.081       .  S
C157        O171   1.237       .  S
C157        O172   1.270       .  A
C157        H182   1.082       .  S
O158        C181   1.270       .  A
O159       Mg173   2.146       .  S
O160       Mg190   2.281       .  S
C161        O174   1.270       .  A
C161        O166   1.278       .  A
C161        C278   1.484       .  S
C162        O189   1.273       .  A
C162        C326   1.498       .  S
Mg163       O170   2.125       .  S
Mg163       O171   2.143       .  S
Mg163       O164   2.304       .  S
Mg163       O165   2.300       .  S
Mg163       O192   2.266       .  S
O165        C169   1.272       .  A
O166       Mg173   2.334       .  S
O167        C186   1.270       .  A
O168        C188   1.278       .  A
O168       Mg184   2.326       .  S
O170       Mg184   2.147       .  S
O170        C181   1.237       .  S
O171       Mg190   2.130       .  S
O172       Mg184   2.296       .  S
Mg173       O189   2.266       .  S
O174       Mg190   2.244       .  S
H175        C180   1.082       .  S
O176       Mg184   2.148       .  S
O176        C179   1.239       .  S
H177        C179   1.081       .  S
H178        C181   1.081       .  S
O183       Mg190   2.292       .  S
C186        O191   1.274       .  A
C186        C221   1.473       .  S
O187        C188   1.272       .  A
C188        C293   1.484       .  S
C193        H683   1.084   1_455  S
C193        C194   1.402       .  A
C193        C198   1.399       .  A
C194        C679   1.475   1_465  S
C194        C195   1.411       .  A
C195        C196   1.397       .  A
C195        S200   1.806       .  S
C196        H201   1.084       .  S
C196        C197   1.406       .  A
C197        C198   1.413       .  A
C198        S202   1.803       .  S
C199        C674   1.475   1_545  S
C199        C204   1.408       .  A
C199        C688   1.401       .  A
S200        H216   1.405   1_565  S
S202        H213   1.407       .  S
H203        C673   1.084       .  S
C204        C205   1.400       .  A
C204        S209   1.807   1_545  S
C205        H210   1.083       .  S
C205        C206   1.407       .  A
C206        C207   1.415       .  A
C207        C688   1.398       .  A
C207        S691   1.803       .  S
C208        H212   1.084       .  S
C208        C679   1.401   1_455  A
C208        C687   1.398   1_455  A
S209        H214   1.407   1_565  S
S211        C687   1.803   1_455  S
S211        H695   1.407       .  S
H215        S691   1.407       .  S
C217        H227   1.084       .  S
C217        C218   1.402       .  A
C217        C222   1.398       .  A
C218        C223   1.471       .  S
C218        C219   1.409       .  A
C219        C220   1.395       .  A
C219        S224   1.805       .  S
C220        H225   1.084       .  S
C220        C221   1.405       .  A
C221        C222   1.413       .  A
C222        S226   1.802       .  S
C223        C228   1.407       .  A
C223        C232   1.401       .  A
S224        H240   1.405       .  S
S226        H237   1.407       .  S
C228        C229   1.398       .  A
C228        S233   1.807       .  S
C229        H234   1.083       .  S
C229        C230   1.404       .  A
C230        C231   1.413       .  A
C231        C232   1.397       .  A
C231        S235   1.804       .  S
C232        H236   1.084       .  S
S233        H238   1.407       .  S
S235        H239   1.407       .  S
C241        H251   1.084       .  S
C241        C242   1.402       .  A
C241        C246   1.399       .  A
C242        C727   1.481       .  S
C242        C243   1.414       .  A
C243        C244   1.402       .  A
C243        S728   1.805       .  S
C244        H249   1.084       .  S
C244        C245   1.404       .  A
C245        C246   1.413       .  A
C246        S250   1.803       .  S
C247        C722   1.481   1_455  S
C247        C252   1.407       .  A
C247        C256   1.402       .  A
S248        C723   1.805       .  S
S248        H264   1.404       .  S
S250        H261   1.407       .  S
C252        C253   1.404       .  A
C252        S737   1.806   1_455  S
C253        H258   1.083       .  S
C253        C254   1.409       .  A
C254        C255   1.417       .  A
C255        C256   1.401       .  A
C255        S259   1.802       .  S
C256        H260   1.084       .  S
S257        C732   1.806       .  S
S257        H262   1.407       .  S
S259        H263   1.407       .  S
C265        H755   1.084       .  S
C265        C266   1.402       .  A
C265        C270   1.401       .  A
C266        C751   1.487       .  S
C266        C267   1.413       .  A
C267        C268   1.402       .  A
C267        S272   1.805       .  S
C268        H273   1.083       .  S
C268        C269   1.409       .  A
C269        C270   1.420       .  A
C270        S274   1.803       .  S
C271        C746   1.487   1_455  S
C271        C276   1.412       .  A
C271        C280   1.402       .  A
S272        H288   1.406       .  S
S274        H285   1.408       .  S
H275        C745   1.084       .  S
C276        C277   1.407       .  A
C276        S281   1.806       .  S
C277        H282   1.083       .  S
C277        C278   1.406       .  A
C278        C279   1.417       .  A
C279        C280   1.399       .  A
C279        S283   1.805       .  S
C280        H764   1.084   1_455  S
S281        H286   1.407       .  S
S283        H287   1.407       .  S
H284        C760   1.084       .  S
C289        H299   1.084       .  S
C289        C290   1.401       .  A
C289        C294   1.400       .  A
C290        C295   1.482       .  S
C290        C291   1.413       .  A
C291        C292   1.401       .  A
C291        S296   1.805       .  S
C292        H297   1.084       .  S
C292        C293   1.405       .  A
C293        C294   1.417       .  A
C294        S298   1.803       .  S
C295        C300   1.407       .  A
C295        C304   1.402       .  A
S296        H312   1.405       .  S
S298        H309   1.407       .  S
C300        C301   1.403       .  A
C300        S305   1.807       .  S
C301        H306   1.083       .  S
C301        C302   1.409       .  A
C302        C303   1.419       .  A
C303        C304   1.401       .  A
C303        S307   1.803       .  S
C304        H308   1.084       .  S
S305        H310   1.407       .  S
S307        H311   1.407       .  S
C313        H323   1.084       .  S
C313        C314   1.403       .  A
C313        C318   1.405       .  A
C314        C319   1.483       .  S
C314        C315   1.409       .  A
C315        C316   1.397       .  A
C315        S320   1.804       .  S
C316        H321   1.084       .  S
C316        C317   1.407       .  A
C317        C318   1.420       .  A
C318        S322   1.803       .  S
C319        C324   1.407       .  A
C319        C328   1.400       .  A
S320        H336   1.405       .  S
S322        H333   1.408       .  S
C324        C325   1.406       .  A
C324        S329   1.806       .  S
C325        H330   1.082       .  S
C325        C326   1.412       .  A
C326        C327   1.422       .  A
C327        C328   1.400       .  A
C327        S331   1.802       .  S
C328        H332   1.084       .  S
S329        H334   1.407       .  S
S331        H335   1.408       .  S
C337        H827   1.084   1_455  S
C337        C338   1.401       .  A
C337        C342   1.399       .  A
C338        C823   1.483   1_455  S
C338        C339   1.414       .  A
C339        C340   1.401       .  A
C339        S344   1.805       .  S
C340        H345   1.084       .  S
C340        C341   1.405       .  A
C341        C342   1.418       .  A
C342        S346   1.803       .  S
C343        C818   1.483       .  S
C343        C348   1.409       .  A
C343        C352   1.401       .  A
S344        H360   1.405       .  S
S346        H357   1.407       .  S
H347        C817   1.084       .  S
C348        C349   1.404       .  A
C348        S353   1.807       .  S
C349        H354   1.083       .  S
C349        C350   1.407       .  A
C350        C351   1.415       .  A
C351        C352   1.399       .  A
C351        S355   1.798       .  S
C352        H836   1.084       .  S
S353        H358   1.407       .  S
S355        H359   1.405       .  S
H356        C832   1.084       .  S
C361        H851   1.084       .  S
C361        C362   1.400       .  A
C361        C366   1.399       .  A
C362        C847   1.483       .  S
C362        C363   1.413       .  A
C363        C364   1.402       .  A
C363        S368   1.805       .  S
C364        H369   1.083       .  S
C364        C365   1.408       .  A
C365        C366   1.422       .  A
C366        S370   1.804       .  S
C367        C842   1.483   1_455  S
C367        C372   1.410       .  A
C367        C376   1.401       .  A
S368        H384   1.405       .  S
S370        H381   1.408       .  S
H371        C841   1.084   1_455  S
C372        C373   1.406       .  A
C372        S377   1.806       .  S
C373        H378   1.083       .  S
C373        C374   1.407       .  A
C374        C375   1.416       .  A
C375        C376   1.401       .  A
C375        S379   1.810       .  S
C376        H860   1.083   1_455  S
S377        H382   1.407       .  S
S379        H383   1.407   1_455  S
H380        C856   1.083       .  S
C385        H395   1.084       .  S
C385        C386   1.400       .  A
C385        C390   1.398       .  A
C386        C391   1.481       .  S
C386        C387   1.414       .  A
C387        C388   1.402       .  A
C387        S392   1.805       .  S
C388        H393   1.084       .  S
C388        C389   1.406       .  A
C389        C390   1.417       .  A
C390        S394   1.804       .  S
C391        C396   1.408       .  A
C391        C400   1.401       .  A
S392        H408   1.405       .  S
S394        H405   1.407       .  S
C396        C397   1.403       .  A
C396        S401   1.807       .  S
C397        H402   1.083       .  S
C397        C398   1.410       .  A
C398        C399   1.416       .  A
C399        C400   1.399       .  A
C399        S403   1.799       .  S
C400        H404   1.084       .  S
S401        H406   1.406       .  S
S403        H407   1.407       .  S
C409        H419   1.084       .  S
C409        C410   1.399       .  A
C409        C414   1.399       .  A
C410        C415   1.478       .  S
C410        C411   1.410       .  A
C411        C412   1.399       .  A
C411        S416   1.805       .  S
C412        H417   1.083       .  S
C412        C413   1.410       .  A
C413        C414   1.422       .  A
C414        S418   1.803       .  S
C415        C420   1.409       .  A
C415        C424   1.399       .  A
S416        H432   1.405       .  S
S418        H429   1.408       .  S
C420        C421   1.405       .  A
C420        S425   1.806       .  S
C421        H426   1.082       .  S
C421        C422   1.405       .  A
C422        C423   1.418       .  A
C423        C424   1.397       .  A
C423        S427   1.806       .  S
C424        H428   1.084       .  S
S425        H430   1.407       .  S
S427        H431   1.407       .  S
C433        H443   1.084       .  S
C433        C914   1.402       .  A
C433        C918   1.398       .  A
C434        C919   1.472   1_446  S
C434        C435   1.411   1_556  A
C434        C913   1.402       .  A
C435        C436   1.395       .  A
C435        S440   1.805       .  S
C436        H441   1.084       .  S
C436        C437   1.404   1_554  A
C437        C438   1.412       .  A
C438        C913   1.398       .  A
C438        S922   1.803       .  S
C439        C914   1.472   1_564  S
C439        C444   1.407       .  A
C439        C928   1.400   1_554  A
S440        H456   1.405   1_545  S
S442        C918   1.802       .  S
S442        H933   1.407       .  S
C444        C445   1.398       .  A
C444        S449   1.808   1_565  S
C445        H450   1.083       .  S
C445        C446   1.406       .  A
C446        C447   1.416   1_554  A
C447        C928   1.398       .  A
C447        S931   1.803       .  S
C448        H452   1.084       .  S
C448        C919   1.400   1_456  A
C448        C927   1.398   1_455  A
S449        H454   1.407   1_545  S
S451        C927   1.803   1_455  S
S451        H935   1.407       .  S
H453        S922   1.407       .  S
H455        S931   1.407       .  S
C457        H467   1.084       .  S
C457        C458   1.402   1_556  A
C457        C462   1.401       .  A
C458        C463   1.472   1_554  S
C458        C459   1.409       .  A
C459        C460   1.394       .  A
C459        S464   1.805       .  S
C460        H465   1.084       .  S
C460        C461   1.404       .  A
C461        C462   1.414   1_554  A
C462        S466   1.803       .  S
C463        C468   1.407   1_556  A
C463        C472   1.400       .  A
S464        H480   1.405       .  S
S466        H477   1.407       .  S
C468        C469   1.400       .  A
C468        S473   1.807       .  S
C469        H474   1.083       .  S
C469        C470   1.405   1_554  A
C470        C471   1.415       .  A
C471        C472   1.398       .  A
C471        S475   1.804       .  S
C472        H476   1.084       .  S
S473        H478   1.407       .  S
S475        H479   1.407       .  S
O481       Mg483   2.136   1_554  S
O481       Mg489   2.142       .  S
O481        C516   1.236       .  S
C482        O495   1.237       .  S
C482        O519   1.269       .  A
C482        H521   1.081       .  S
Mg483       O512   2.148       .  S
Mg483       O527   2.304       .  S
Mg483       O523   2.249       .  S
Mg483       O494   2.295       .  S
O484       Mg526   2.144       .  S
O484       Mg509   2.134       .  S
O484        C505   1.239       .  S
O485        C516   1.271       .  A
O485       Mg509   2.302       .  S
C486        O488   1.275       .  A
C486        O500   1.275       .  A
C486        C821   1.484       .  S
O487        C515   1.272   1_554  A
O487       Mg489   2.301       .  S
O488       Mg520   2.280       .  S
Mg489       O495   2.122       .  S
Mg489       O503   2.243       .  S
Mg489       O491   2.300       .  S
C490        O528   1.271       .  A
C490        O496   1.272   1_556  A
C490        C917   1.471       .  S
O491        C498   1.273       .  A
H492        C505   1.081       .  S
C493        O507   1.236       .  S
C493        O508   1.271       .  A
C493        H518   1.082       .  S
O494        C517   1.270       .  A
O495       Mg509   2.143       .  S
O496       Mg526   2.281       .  S
C497        O510   1.271       .  A
C497        O502   1.277       .  A
C497        C854   1.485       .  S
C498        O525   1.274       .  A
C498        C893   1.492       .  S
Mg499       O506   2.133       .  S
Mg499       O507   2.143       .  S
Mg499       O500   2.299       .  S
Mg499       O501   2.303       .  S
Mg499       O528   2.263       .  S
O501        C505   1.273   1_556  A
O502       Mg509   2.322       .  S
O503        C522   1.270       .  A
O504        C524   1.279       .  A
O504       Mg520   2.328       .  S
O506       Mg520   2.150       .  S
O506        C517   1.237       .  S
O507       Mg526   2.136   1_556  S
O508       Mg520   2.301       .  S
Mg509       O525   2.266       .  S
O510       Mg526   2.252       .  S
H511        C516   1.082       .  S
O512       Mg520   2.141       .  S
O512        C515   1.238       .  S
H513        C515   1.081       .  S
H514        C517   1.081       .  S
O519       Mg526   2.291       .  S
C522        O527   1.274   1_554  A
C522        C941   1.475       .  S
O523        C524   1.271       .  A
C524        C869   1.484       .  S
O529       Mg531   2.154   1_554  S
O529       Mg537   2.145       .  S
O529        C564   1.237       .  S
C530        O543   1.238       .  S
C530        O567   1.271       .  A
C530        H569   1.081       .  S
Mg531       O560   2.146       .  S
Mg531       O575   2.294       .  S
Mg531       O571   2.270       .  S
Mg531       O542   2.292       .  S
O532       Mg574   2.145       .  S
O532       Mg557   2.139       .  S
O532        C553   1.238       .  S
O533        C564   1.272       .  A
O533       Mg557   2.309       .  S
C534        O536   1.274       .  A
C534        O548   1.276       .  A
C534        C782   1.490       .  S
O535        C563   1.272   1_554  A
O535       Mg537   2.305       .  S
O536       Mg568   2.278       .  S
Mg537       O543   2.128       .  S
Mg537       O551   2.247       .  S
Mg537       O539   2.320       .  S
C538        O576   1.269       .  A
C538        O544   1.276   1_556  A
C538        C950   1.474       .  S
O539        C546   1.276       .  A
H540        C553   1.081       .  S
C541        O555   1.237       .  S
C541        O556   1.270       .  A
C541        H566   1.082       .  S
O542        C565   1.270       .  A
O543       Mg557   2.141       .  S
O544       Mg574   2.303       .  S
C545        O558   1.273       .  A
C545        O550   1.277       .  A
C545        C797   1.490       .  S
C546        O573   1.274       .  A
C546        C749   1.495       .  S
Mg547       O554   2.115       .  S
Mg547       O555   2.145       .  S
Mg547       O548   2.303       .  S
Mg547       O549   2.302       .  S
Mg547       O576   2.241       .  S
O549        C553   1.272   1_556  A
O550       Mg557   2.323       .  S
O551        C570   1.271       .  A
O552        C572   1.276       .  A
O552       Mg568   2.311       .  S
O554       Mg568   2.144       .  S
O554        C565   1.236       .  S
O555       Mg574   2.138   1_556  S
O556       Mg568   2.296       .  S
Mg557       O573   2.275       .  S
O558       Mg574   2.261       .  S
H559        C564   1.082       .  S
O560       Mg568   2.143       .  S
O560        C563   1.238       .  S
H561        C563   1.081       .  S
H562        C565   1.081       .  S
O567       Mg574   2.298       .  S
C570        O575   1.273   1_554  A
C570        C926   1.477       .  S
O571        C572   1.273       .  A
C572        C725   1.478       .  S
O577       Mg579   2.142       .  S
O577       Mg585   2.139       .  S
O577        C612   1.237       .  S
C578        O591   1.236       .  S
C578        O615   1.269       .  A
C578        H617   1.081       .  S
Mg579       O608   2.149       .  S
Mg579       O623   2.301       .  S
Mg579       O619   2.259       .  S
Mg579       O590   2.297       .  S
O580       Mg622   2.149       .  S
O580       Mg605   2.135       .  S
O580        C601   1.238       .  S
O581        C612   1.271       .  A
O581       Mg605   2.305       .  S
C582        O584   1.276       .  A
C582        O596   1.274       .  A
C582        C878   1.489       .  S
O583        C611   1.273       .  A
O583       Mg585   2.306       .  S
O584       Mg616   2.289       .  S
Mg585       O591   2.118       .  S
Mg585       O599   2.243       .  S
Mg585       O587   2.294       .  S
C586        O624   1.270       .  A
C586        O592   1.271       .  A
C586        C710   1.471       .  S
O587        C594   1.273       .  A
H588        C601   1.081       .  S
C589        O603   1.236       .  S
C589        O604   1.270       .  A
C589        H614   1.082       .  S
O590        C613   1.270       .  A
O591       Mg605   2.144       .  S
O592       Mg622   2.277       .  S
C593        O606   1.270       .  A
C593        O598   1.279       .  A
C593        C902   1.479       .  S
C594        O621   1.276       .  A
C594        C845   1.493       .  S
Mg595       O602   2.129       .  S
Mg595       O603   2.147       .  S
Mg595       O596   2.287       .  S
Mg595       O597   2.297       .  S
Mg595       O624   2.258       .  S
O597        C601   1.271       .  A
O598       Mg605   2.332       .  S
O599        C618   1.269       .  A
O600        C620   1.277       .  A
O600       Mg616   2.323       .  S
O602       Mg616   2.151       .  S
O602        C613   1.236       .  S
O603       Mg622   2.133       .  S
O604       Mg616   2.297       .  S
Mg605       O621   2.288       .  S
O606       Mg622   2.234       .  S
H607        C612   1.082       .  S
O608       Mg616   2.146       .  S
O608        C611   1.239       .  S
H609        C611   1.081       .  S
H610        C613   1.081       .  S
O615       Mg622   2.287       .  S
C618        O623   1.274       .  A
C618        C686   1.479       .  S
O619        C620   1.272       .  A
C620        C830   1.485       .  S
O625       Mg627   2.142       .  S
O625       Mg633   2.142       .  S
O625        C660   1.236       .  S
C626        O639   1.238       .  S
C626        O663   1.271       .  A
C626        H665   1.081       .  S
Mg627       O656   2.146       .  S
Mg627       O671   2.300       .  S
Mg627       O667   2.255       .  S
Mg627       O638   2.294       .  S
O628       Mg670   2.140       .  S
O628       Mg653   2.131       .  S
O628        C649   1.239       .  S
O629        C660   1.270       .  A
O629       Mg653   2.301       .  S
C630        O632   1.276       .  A
C630        O644   1.277       .  A
C630        C734   1.488       .  S
O631        C659   1.274       .  A
O631       Mg633   2.309       .  S
O632       Mg664   2.286       .  S
Mg633       O639   2.121       .  S
Mg633       O647   2.240       .  S
Mg633       O635   2.322       .  S
C634        O672   1.272       .  A
C634        O640   1.272       .  A
C634        C677   1.475       .  S
O635        C642   1.278       .  A
H636        C649   1.081       .  S
C637        O651   1.237       .  S
C637        O652   1.270       .  A
C637        H662   1.082       .  S
O638        C661   1.270       .  A
O639       Mg653   2.146       .  S
O640       Mg670   2.281       .  S
C641        O654   1.270       .  A
C641        O646   1.278       .  A
C641        C758   1.484       .  S
C642        O669   1.273       .  A
C642        C806   1.498       .  S
Mg643       O650   2.125       .  S
Mg643       O651   2.143       .  S
Mg643       O644   2.304       .  S
Mg643       O645   2.300       .  S
Mg643       O672   2.266       .  S
O645        C649   1.272       .  A
O646       Mg653   2.334       .  S
O647        C666   1.270       .  A
O648        C668   1.278       .  A
O648       Mg664   2.326       .  S
O650       Mg664   2.147       .  S
O650        C661   1.237       .  S
O651       Mg670   2.130       .  S
O652       Mg664   2.296       .  S
Mg653       O669   2.266       .  S
O654       Mg670   2.244       .  S
H655        C660   1.082       .  S
O656       Mg664   2.148       .  S
O656        C659   1.239       .  S
H657        C659   1.081       .  S
H658        C661   1.081       .  S
O663       Mg670   2.292       .  S
C666        O671   1.274       .  A
C666        C701   1.473       .  S
O667        C668   1.272       .  A
C668        C773   1.483       .  S
C673        C674   1.402       .  A
C673        C678   1.399       .  A
C674        C675   1.411       .  A
C675        C676   1.397       .  A
C675        S680   1.806       .  S
C676        H681   1.084       .  S
C676        C677   1.406       .  A
C677        C678   1.413       .  A
C678        S682   1.803       .  S
C679        C684   1.408       .  A
S680        H696   1.405   1_565  S
S682        H693   1.407       .  S
C684        C685   1.400       .  A
C684        S689   1.807   1_545  S
C685        H690   1.083       .  S
C685        C686   1.407       .  A
C686        C687   1.415       .  A
C688        H692   1.084       .  S
S689        H694   1.407   1_565  S
C697        H707   1.084       .  S
C697        C698   1.402       .  A
C697        C702   1.398       .  A
C698        C703   1.471       .  S
C698        C699   1.409       .  A
C699        C700   1.395       .  A
C699        S704   1.805       .  S
C700        H705   1.084       .  S
C700        C701   1.405       .  A
C701        C702   1.413       .  A
C702        S706   1.802       .  S
C703        C708   1.407       .  A
C703        C712   1.401       .  A
S704        H720   1.405       .  S
S706        H717   1.407       .  S
C708        C709   1.398       .  A
C708        S713   1.807       .  S
C709        H714   1.083       .  S
C709        C710   1.404       .  A
C710        C711   1.413       .  A
C711        C712   1.397       .  A
C711        S715   1.804       .  S
C712        H716   1.084       .  S
S713        H718   1.407       .  S
S715        H719   1.407       .  S
C721        H731   1.084   1_655  S
C721        C722   1.402       .  A
C721        C726   1.399       .  A
C722        C723   1.414       .  A
C723        C724   1.402       .  A
C724        H729   1.084       .  S
C724        C725   1.404       .  A
C725        C726   1.413       .  A
C726        S730   1.803       .  S
C727        C732   1.407       .  A
C727        C736   1.402       .  A
S728        H744   1.404       .  S
S730        H741   1.407       .  S
C732        C733   1.404       .  A
C733        H738   1.083       .  S
C733        C734   1.409       .  A
C734        C735   1.417       .  A
C735        C736   1.401       .  A
C735        S739   1.802       .  S
C736        H740   1.084       .  S
S737        H742   1.407       .  S
S739        H743   1.407       .  S
C745        C746   1.402       .  A
C745        C750   1.401       .  A
C746        C747   1.413       .  A
C747        C748   1.402       .  A
C747        S752   1.805       .  S
C748        H753   1.083       .  S
C748        C749   1.409       .  A
C749        C750   1.420       .  A
C750        S754   1.803       .  S
C751        C756   1.412       .  A
C751        C760   1.402       .  A
S752        H768   1.406       .  S
S754        H765   1.408       .  S
C756        C757   1.407       .  A
C756        S761   1.806       .  S
C757        H762   1.083       .  S
C757        C758   1.406       .  A
C758        C759   1.417       .  A
C759        C760   1.399       .  A
C759        S763   1.805       .  S
S761        H766   1.407       .  S
S763        H767   1.407       .  S
C769        H779   1.084       .  S
C769        C770   1.401       .  A
C769        C774   1.400       .  A
C770        C775   1.482       .  S
C770        C771   1.413       .  A
C771        C772   1.401       .  A
C771        S776   1.805       .  S
C772        H777   1.084       .  S
C772        C773   1.405       .  A
C773        C774   1.417       .  A
C774        S778   1.803       .  S
C775        C780   1.407       .  A
C775        C784   1.402       .  A
S776        H792   1.405       .  S
S778        H789   1.407       .  S
C780        C781   1.403       .  A
C780        S785   1.807       .  S
C781        H786   1.083       .  S
C781        C782   1.409       .  A
C782        C783   1.419       .  A
C783        C784   1.402       .  A
C783        S787   1.803       .  S
C784        H788   1.084       .  S
S785        H790   1.407       .  S
S787        H791   1.407       .  S
C793        H803   1.084       .  S
C793        C794   1.403       .  A
C793        C798   1.405       .  A
C794        C799   1.483       .  S
C794        C795   1.409       .  A
C795        C796   1.397       .  A
C795        S800   1.804       .  S
C796        H801   1.084       .  S
C796        C797   1.407       .  A
C797        C798   1.420       .  A
C798        S802   1.803       .  S
C799        C804   1.407       .  A
C799        C808   1.400       .  A
S800        H816   1.405       .  S
S802        H813   1.407       .  S
C804        C805   1.406       .  A
C804        S809   1.806       .  S
C805        H810   1.082       .  S
C805        C806   1.412       .  A
C806        C807   1.422       .  A
C807        C808   1.400       .  A
C807        S811   1.802       .  S
C808        H812   1.084       .  S
S809        H814   1.407       .  S
S811        H815   1.408       .  S
C817        C818   1.401       .  A
C817        C822   1.399       .  A
C818        C819   1.414       .  A
C819        C820   1.401       .  A
C819        S824   1.805       .  S
C820        H825   1.084       .  S
C820        C821   1.405       .  A
C821        C822   1.418       .  A
C822        S826   1.803       .  S
C823        C828   1.409       .  A
C823        C832   1.401       .  A
S824        H840   1.405       .  S
S826        H837   1.407       .  S
C828        C829   1.404       .  A
C828        S833   1.807   1_655  S
C829        H834   1.083       .  S
C829        C830   1.407       .  A
C830        C831   1.415       .  A
C831        C832   1.399       .  A
C831        S835   1.798       .  S
S833        H838   1.407       .  S
S835        H839   1.405       .  S
C841        C842   1.400       .  A
C841        C846   1.399       .  A
C842        C843   1.413       .  A
C843        C844   1.402       .  A
C843        S848   1.805       .  S
C844        H849   1.083       .  S
C844        C845   1.408       .  A
C845        C846   1.422       .  A
C846        S850   1.804       .  S
C847        C852   1.410       .  A
C847        C856   1.401       .  A
S848        H864   1.405       .  S
S850        H861   1.408       .  S
C852        C853   1.406       .  A
C852        S857   1.806       .  S
C853        H858   1.083       .  S
C853        C854   1.407       .  A
C854        C855   1.416       .  A
C855        C856   1.401       .  A
C855        S859   1.810       .  S
S857        H862   1.407       .  S
S859        H863   1.407       .  S
C865        H875   1.084       .  S
C865        C866   1.400       .  A
C865        C870   1.398       .  A
C866        C871   1.481       .  S
C866        C867   1.414       .  A
C867        C868   1.402       .  A
C867        S872   1.805       .  S
C868        H873   1.084       .  S
C868        C869   1.406       .  A
C869        C870   1.417       .  A
C870        S874   1.804       .  S
C871        C876   1.408       .  A
C871        C880   1.401       .  A
S872        H888   1.405       .  S
S874        H885   1.407       .  S
C876        C877   1.403       .  A
C876        S881   1.807       .  S
C877        H882   1.083       .  S
C877        C878   1.410       .  A
C878        C879   1.416       .  A
C879        C880   1.399       .  A
C879        S883   1.799       .  S
C880        H884   1.084       .  S
S881        H886   1.406       .  S
S883        H887   1.407       .  S
C889        H899   1.084       .  S
C889        C890   1.399       .  A
C889        C894   1.399       .  A
C890        C895   1.478       .  S
C890        C891   1.410       .  A
C891        C892   1.399       .  A
C891        S896   1.805       .  S
C892        H897   1.083       .  S
C892        C893   1.410       .  A
C893        C894   1.422       .  A
C894        S898   1.803       .  S
C895        C900   1.409       .  A
C895        C904   1.399       .  A
S896        H912   1.405       .  S
S898        H909   1.408       .  S
C900        C901   1.405       .  A
C900        S905   1.806       .  S
C901        H906   1.082       .  S
C901        C902   1.405       .  A
C902        C903   1.418       .  A
C903        C904   1.397       .  A
C903        S907   1.806       .  S
C904        H908   1.084       .  S
S905        H910   1.407       .  S
S907        H911   1.407       .  S
C913        H923   1.084   1_455  S
C914        C915   1.411   1_556  A
C915        C916   1.395       .  A
C915        S920   1.805       .  S
C916        H921   1.084       .  S
C916        C917   1.404   1_554  A
C917        C918   1.412       .  A
C919        C924   1.407       .  A
S920        H936   1.405   1_545  S
C924        C925   1.398       .  A
C924        S929   1.808   1_565  S
C925        H930   1.083       .  S
C925        C926   1.406       .  A
C926        C927   1.416   1_554  A
C928        H932   1.084       .  S
S929        H934   1.407   1_545  S
C937        H947   1.084       .  S
C937        C938   1.402   1_556  A
C937        C942   1.401       .  A
C938        C943   1.472   1_554  S
C938        C939   1.409       .  A
C939        C940   1.394       .  A
C939        S944   1.805       .  S
C940        H945   1.084       .  S
C940        C941   1.404       .  A
C941        C942   1.414   1_554  A
C942        S946   1.803       .  S
C943        C948   1.407   1_556  A
C943        C952   1.400       .  A
S944        H960   1.405       .  S
S946        H957   1.407       .  S
C948        C949   1.400       .  A
C948        S953   1.807       .  S
C949        H954   1.083       .  S
C949        C950   1.405   1_554  A
C950        C951   1.415       .  A
C951        C952   1.398       .  A
C951        S955   1.804       .  S
C952        H956   1.084       .  S
S953        H958   1.407       .  S
S955        H959   1.407       .  S
