geometry optimzed in LAMMPS
_audit_creation_date              2020-12-01 
_audit_creation_method            'lammps2cif' 
_symmetry_space_group_name_H-M    'P1' 
_symmetry_Int_Tables_number       1 
_symmetry_cell_setting            triclinic 
loop_ 
_symmetry_equiv_pos_as_xyz 
  x,y,z 
_cell_length_a                    46.71214369 
_cell_length_b                    33.813051756091525 
_cell_length_c                    34.40713049304911 
_cell_angle_alpha                 90.84780704647129 
_cell_angle_beta                  90.03019619644654 
_cell_angle_gamma                 90.01893311456325 
loop_ 
_atom_site_label 
_atom_site_type_symbol 
_atom_site_fract_x 
_atom_site_fract_y 
_atom_site_fract_z 
_atom_site_charge 
O1          O  0.17299096  0.27081915  0.02519668    -0.88400
C2          C  0.09352234  0.29332900  0.06752516     0.87600
Mg3        Mg  0.18571275  0.28636859  0.96753231     1.58100
O4          O  0.10695309  0.19386034  0.04451268    -0.88200
O5          O  0.17049754  0.21847939  0.06199945    -0.75500
C6          C  0.07959492  0.21966986  0.85472528     0.92700
O7          O  0.13037237  0.34118700  0.00501391    -0.75300
O8          O  0.09937354  0.24568391  0.85453085    -0.82800
Mg9        Mg  0.15254421  0.31632376  0.05933352     1.58000
C10         C  0.05076590  0.12681780  0.98376023     0.92600
O11         O  0.17519754  0.29625779  0.11578121    -0.81100
H12         H  0.13082984  0.14540146  0.05134680    -0.06400
C13         C  0.06574488  0.25554088  0.96025467     0.87500
O14         O  0.17836621  0.22255526  0.94593344    -0.75600
O15         O  0.11740036  0.27760618  0.06868299    -0.88300
O16         O  0.05210386  0.14917107  0.01375809    -0.81200
C17         C  0.05908475  0.20880241  0.12627596     0.92700
C18         C  0.17052065  0.27375345  0.14463330     0.92500
Mg19       Mg  0.09773194  0.17998769  0.94100811     1.58000
O20         O  0.07531995  0.19809314  0.88427937    -0.81100
O21         O  0.11962085  0.15549645  0.99540270    -0.75300
O22         O  0.08493395  0.22077495  0.12970271    -0.81200
O23         O  0.18793338  0.36074782  0.04908251    -0.82900
O24         O  0.16473394  0.27651531  0.86965508    -0.81200
C25         C  0.11920820  0.16401484  0.03151620     0.87000
O26         O  0.13280936  0.21896760  0.93109169    -0.88300
O27         O  0.07722037  0.22615012  0.97446428    -0.88400
O28         O  0.07887141  0.27752234  0.93651204    -0.75500
Mg29       Mg  0.12692024  0.22134036  0.09330272     1.58000
O30         O  0.04879771  0.19871158  0.09332154    -0.82900
H31         H  0.20524681  0.23224460  0.02947010    -0.06600
O32         O  0.14237054  0.30318881  0.95522065    -0.88100
H33         H  0.11811317  0.35146911  0.94946619    -0.06400
H34         H  0.15966321  0.17369387  0.92218576    -0.06600
C35         C  0.13010616  0.33278198  0.96881841     0.87000
C36         C  0.18393182  0.24061526  0.03863997     0.87500
C37         C  0.15693368  0.20393989  0.93212162     0.87600
H38         H  0.04424320  0.26334615  0.96908161    -0.06600
O39         O  0.07191269  0.27546776  0.05334235    -0.75600
Mg40       Mg  0.12257693  0.27489521  0.90584600     1.58000
H41         H  0.09122664  0.32362993  0.07750345    -0.06600
C42         C  0.19878136  0.37155964  0.01702132     0.92600
O43         O  0.20004755  0.30049390  0.90645921    -0.82800
C44         C  0.19018514  0.29002258  0.87338657     0.92600
O45         O  0.15009183  0.24888254  0.14428035    -0.82800
Mg46       Mg  0.06397129  0.21185829  0.03212817     1.58200
O47         O  0.19734493  0.34991854  0.98643343    -0.81100
O48         O  0.06205250  0.13639122  0.95162581    -0.82800
O49         O  0.42446938  0.76523593  0.02447333    -0.88400
C50         C  0.34787013  0.80069536  0.06726524     0.87600
Mg51       Mg  0.43800890  0.77643274  0.96631664     1.58100
O52         O  0.35381552  0.69935808  0.04662056    -0.88200
O53         O  0.41913930  0.71507366  0.06339520    -0.75500
C54         C  0.32559217  0.72584320  0.85734614     0.92700
O55         O  0.38737116  0.84063432  0.00234692    -0.75300
O56         O  0.34751123  0.74826847  0.85539501    -0.82800
Mg57       Mg  0.40794220  0.81460222  0.05710623     1.58000
C58         C  0.29088699  0.63937601  0.98840570     0.92600
O59         O  0.42936164  0.79445388  0.11383445    -0.81100
H60         H  0.37358654  0.64759351  0.05410045    -0.06400
C61         C  0.31657772  0.76487780  0.96142207     0.87500
O62         O  0.42525919  0.71359619  0.94710531    -0.75600
O63         O  0.37042072  0.78163985  0.06875384    -0.88300
O64         O  0.29491074  0.66181665  0.01794023    -0.81200
C65         C  0.30816270  0.72219703  0.12793682     0.92700
C66         C  0.42406392  0.77414451  0.14397556     0.92500
Mg67       Mg  0.34170316  0.68424828  0.94354813     1.58000
O68         O  0.32053949  0.70537790  0.88738998    -0.81100
O69         O  0.36208007  0.65776909  0.99825259    -0.75300
O70         O  0.33468971  0.73076687  0.13174503    -0.81200
O71         O  0.44624200  0.85252090  0.04476175    -0.82900
O72         O  0.41567310  0.76833449  0.86862841    -0.81200
C73         C  0.36324415  0.66740252  0.03410671     0.87000
O74         O  0.37972043  0.71711808  0.93192445    -0.88300
O75         O  0.32574013  0.73414979  0.97598377    -0.88400
O76         O  0.33114471  0.78421702  0.93699626    -0.75500
Mg77       Mg  0.37632469  0.72504038  0.09496845     1.58000
O78         O  0.29737363  0.71382174  0.09494247    -0.82900
H79         H  0.45428538  0.72324446  0.02980616    -0.06600
O80         O  0.39636235  0.79967620  0.95366382    -0.88100
H81         H  0.37596625  0.85103415  0.94652101    -0.06400
H82         H  0.40250904  0.66751332  0.92465273    -0.06600
C83         C  0.38649991  0.83130027  0.96640551     0.87000
C84         C  0.43366636  0.73449284  0.03897381     0.87500
C85         C  0.40240218  0.69829836  0.93359548     0.87600
H86         H  0.29596686  0.77618882  0.97054785    -0.06600
O87         O  0.32504680  0.78578807  0.05338037    -0.75600
Mg88       Mg  0.37393484  0.77395643  0.90550309     1.58000
H89         H  0.34790697  0.83139185  0.07651863    -0.06600
C90         C  0.45686048  0.86119455  0.01199076     0.92600
O91         O  0.45335089  0.78535416  0.90498002    -0.82800
C92         C  0.44227424  0.77663108  0.87216620     0.92600
O93         O  0.40248910  0.75106894  0.14530321    -0.82800
Mg94       Mg  0.31227402  0.72316497  0.03398387     1.58200
O95         O  0.45402644  0.83866728  0.98225103    -0.81100
O96         O  0.30236529  0.64662159  0.95574228    -0.82800
O97         O  0.42239548  0.23265779  0.47571346    -0.88400
C98         C  0.34547798  0.20036942  0.43310842     0.87600
Mg99       Mg  0.43576676  0.22018379  0.53364049     1.58100
O100        O  0.35467181  0.30107528  0.45306699    -0.88200
O101        O  0.41920163  0.28244820  0.43599866    -0.75500
C102        C  0.32677190  0.27980167  0.64480299     0.92700
O103        O  0.38344729  0.15957225  0.49797262    -0.75300
O104        O  0.34817189  0.25639567  0.64664901    -0.82800
Mg105      Mg  0.40514595  0.18399802  0.44291835     1.58000
C106        C  0.29533884  0.36561065  0.51097218     0.92600
O107        O  0.42777993  0.20374932  0.38675869    -0.81100
H108        H  0.37615250  0.35153281  0.44556033    -0.06400
C109        C  0.31551140  0.23950327  0.54049078     0.87500
O110        O  0.42575719  0.28387073  0.55312392    -0.75600
O111        O  0.36851593  0.21827589  0.43089703    -0.88300
O112        O  0.29849210  0.34296157  0.48142912    -0.81200
C113        C  0.30787892  0.27935017  0.37212823     0.92700
C114        C  0.42332977  0.22418002  0.35646361     0.92500
Mg115      Mg  0.34334605  0.31796891  0.55690123     1.58000
O116        O  0.32159358  0.29943411  0.61415542    -0.81100
O117        O  0.36433713  0.34222362  0.50144284    -0.75300
O118        O  0.33423216  0.26999518  0.36819794    -0.81200
O119        O  0.44261006  0.14458782  0.45492872    -0.82900
O120        O  0.41557563  0.22954472  0.63272222    -0.81200
C121        C  0.36517391  0.33241709  0.46558453     0.87000
O122        O  0.38038860  0.28347040  0.56912457    -0.88300
O123        O  0.32599346  0.26881908  0.52485562    -0.88400
O124        O  0.32924827  0.22007319  0.56572609    -0.75500
Mg125      Mg  0.37612591  0.27433709  0.40450502     1.58000
O126        O  0.29745631  0.28891383  0.40510592    -0.82900
H127        H  0.45372768  0.27252403  0.47034588    -0.06600
O128        O  0.39351545  0.19971963  0.54710563    -0.88100
H129        H  0.37076134  0.15013383  0.55350103    -0.06400
H130        H  0.40494607  0.33153962  0.57582119    -0.06600
C131        C  0.38239012  0.16902691  0.53394420     0.87000
C132        C  0.43280486  0.26254150  0.46100158     0.87500
C133        C  0.40365099  0.30077507  0.56698004     0.87600
H134        H  0.29438007  0.22967163  0.53189778    -0.06600
O135        O  0.32327498  0.21639265  0.44766287    -0.75600
Mg136      Mg  0.37287113  0.22749387  0.59620430     1.58000
H137        H  0.34458270  0.16963775  0.42405643    -0.06600
C138        C  0.45333666  0.13549188  0.48745931     0.92600
O139        O  0.45093132  0.20901108  0.59422625    -0.82800
C140        C  0.44142434  0.21778593  0.62781257     0.92600
O141        O  0.40172927  0.24713261  0.35403545    -0.82800
Mg142      Mg  0.31263369  0.27992096  0.46641084     1.58200
O143        O  0.45002048  0.15732752  0.51755903    -0.81100
O144        O  0.30526090  0.35691392  0.54416550    -0.82800
O145        O  0.17420716  0.73117586  0.47567056    -0.88400
C146        C  0.09521579  0.70660965  0.43182925     0.87600
Mg147      Mg  0.18710056  0.71665374  0.53344059     1.58100
O148        O  0.10798195  0.80626201  0.45522310    -0.88200
O149        O  0.17182664  0.78271664  0.43790377    -0.75500
C150        C  0.07781827  0.77553157  0.64332471     0.92700
O151        O  0.13274234  0.65883857  0.49510170    -0.75300
O152        O  0.09800602  0.75022526  0.64330548    -0.82800
Mg153      Mg  0.15470900  0.68485266  0.44154726     1.58000
C154        C  0.05120753  0.87263806  0.51549645     0.92600
O155        O  0.17750995  0.70521683  0.38612876    -0.81100
H156        H  0.13222877  0.85462173  0.44993068    -0.06400
C157        C  0.06668282  0.74242903  0.53734308     0.87500
O158        O  0.17799058  0.77982091  0.55484877    -0.75600
O159        O  0.11903019  0.72258720  0.43127924    -0.88300
O160        O  0.05263978  0.85050537  0.48534176    -0.81200
C161        C  0.06049968  0.79131512  0.37306556     0.92700
C162        C  0.17322169  0.72700384  0.35676932     0.92500
Mg163      Mg  0.09727990  0.81890015  0.55908728     1.58000
O164        O  0.07391994  0.79888736  0.61495909    -0.81100
O165        O  0.11990932  0.84393472  0.50533249    -0.75300
O166        O  0.08631656  0.77917310  0.36961111    -0.81200
O167        O  0.19099005  0.64242377  0.45249157    -0.82900
O168        O  0.16426429  0.72479261  0.63025621    -0.81200
C169        C  0.12016309  0.83582235  0.46909169     0.87000
O170        O  0.13233329  0.78069680  0.56929300    -0.88300
O171        O  0.07760386  0.77290280  0.52449436    -0.88400
O172        O  0.08001239  0.72006818  0.56055445    -0.75500
Mg173      Mg  0.12836865  0.77894707  0.40638117     1.58000
O174        O  0.05027787  0.80145417  0.40599936    -0.82900
H175        H  0.20645367  0.76972880  0.47102258    -0.06600
O176        O  0.14420615  0.69736436  0.54465294    -0.88100
H177        H  0.12126357  0.64793205  0.55077395    -0.06400
H178        H  0.15787248  0.82723744  0.57910488    -0.06600
C179        C  0.13267397  0.66712586  0.53126650     0.87000
C180        C  0.18518447  0.76112987  0.46181285     0.87500
C181        C  0.15603999  0.79697815  0.56880833     0.87600
H182        H  0.04554004  0.73390234  0.52754359    -0.06600
O183        O  0.07333213  0.72431884  0.44537585    -0.75600
Mg184      Mg  0.12293125  0.72394886  0.59298119     1.58000
H185        H  0.09316867  0.67631063  0.42173098    -0.06600
C186        C  0.20256280  0.63247684  0.48433561     0.92600
O187        O  0.20136927  0.70401160  0.59497341    -0.82800
C188        C  0.19040257  0.71405966  0.62755282     0.92600
O189        O  0.15237517  0.75127235  0.35564427    -0.82800
Mg190      Mg  0.06493509  0.78782907  0.46689994     1.58200
O191        O  0.20067667  0.65409161  0.51487711    -0.81100
O192        O  0.06208012  0.86272474  0.54778827    -0.82800
C193        C  0.99358857  0.04105479  0.46208156    -0.27700
C194        C  0.49679408  0.02436117  0.49889274     0.01900
C195        C  0.48649489  0.04492192  0.53188469     0.30000
C196        C  0.47314755  0.08153213  0.52776926    -0.19500
C197        C  0.46935998  0.09802079  0.49086665    -0.28900
C198        C  0.47989993  0.07746959  0.45783429     0.44000
C199        C  0.01075498  0.98541754  0.50272088     0.05200
O200        O  0.48885850  0.02912961  0.56824824    -0.57400
H201        H  0.46503420  0.09650899  0.55354931     0.18200
O202        O  0.97685963  0.09246203  0.42123620    -0.64100
H203        H  0.00181171  0.02585006  0.43650171     0.16600
C204        C  0.00115948  0.95232411  0.48107967     0.28900
C205        C  0.01431424  0.91561306  0.48590154    -0.25000
C206        C  0.03695585  0.91126065  0.51231272    -0.24300
C207        C  0.04665900  0.94445012  0.53378292     0.40300
C208        C  0.03369491  0.98121670  0.52865487    -0.26800
O209        O  0.97819398  0.95525501  0.45640430    -0.58600
H210        H  0.00660010  0.89038040  0.46916272     0.15900
O211        O  0.06970179  0.94173230  0.55833564    -0.60100
H212        H  0.04170601  0.00664147  0.54483200     0.14400
H213        H  0.99405034  0.10912973  0.41724694     0.46200
H214        H  0.98641524  0.95414807  0.42981670     0.41600
H215        H  0.06137641  0.93906614  0.58466713     0.45100
H216        H  0.47244101  0.01066574  0.57049431     0.36600
C217        C  0.27279948  0.46347743  0.46908952    -0.27700
C218        C  0.25675989  0.47988112  0.49976248     0.01900
C219        C  0.25238266  0.45773137  0.53362821     0.30000
C220        C  0.26461323  0.42010149  0.53672837    -0.19500
C221        C  0.28091984  0.40394031  0.50619017    -0.28900
C222        C  0.28485034  0.42587569  0.47207506     0.44000
C223        C  0.24407103  0.51964229  0.49535397     0.05200
O224        O  0.23511539  0.47189212  0.56294708    -0.57400
H225        H  0.26119307  0.40341624  0.56297352     0.18200
O226        O  0.30111293  0.41135295  0.44188653    -0.64100
H227        H  0.27634125  0.48018056  0.44288314     0.16600
C228        C  0.24881813  0.54998958  0.52305967     0.28900
C229        C  0.23557643  0.58673246  0.51877908    -0.25000
C230        C  0.21799278  0.59428448  0.48652493    -0.24300
C231        C  0.21428528  0.56426249  0.45795823     0.40300
C232        C  0.22727529  0.52741855  0.46257203    -0.26800
O233        O  0.26648506  0.54416562  0.55430355    -0.58600
H234        H  0.23912115  0.60937795  0.54086702     0.15900
O235        O  0.19759300  0.57016522  0.42574990    -0.60100
H236        H  0.22370549  0.50447636  0.44077568     0.14400
H237        H  0.32100822  0.41945532  0.44804535     0.46200
H238        H  0.28604505  0.55013246  0.54476339     0.41600
H239        H  0.17830509  0.56052306  0.43292690     0.45100
H240        H  0.24794563  0.47620272  0.58568136     0.36600
C241        C  0.46985203  0.78255105  0.76805024    -0.27700
C242        C  0.49909951  0.77479884  0.77330434     0.01900
C243        C  0.50945798  0.76741426  0.81087461     0.30000
C244        C  0.49071030  0.76830497  0.84262223    -0.19500
C245        C  0.46130898  0.77572547  0.83756773    -0.28900
C246        C  0.45095146  0.78282511  0.79976087     0.44000
C247        C  0.01880730  0.77488081  0.73957087     0.05200
O248        O  0.53809674  0.76085950  0.81696456    -0.57400
H249        H  0.49925848  0.76286392  0.87133139     0.18200
O250        O  0.42254413  0.79070792  0.79349263    -0.64100
H251        H  0.96166558  0.78832771  0.73922292     0.16600
C252        C  0.03284967  0.74006683  0.72744631     0.28900
C253        C  0.05215470  0.74098840  0.69634982    -0.25000
C254        C  0.05770358  0.77632408  0.67666459    -0.24300
C255        C  0.04320631  0.81107651  0.68843658     0.40300
C256        C  0.02402593  0.81018029  0.71980911    -0.26800
O257        O  0.02688132  0.70473474  0.74484110    -0.58600
H258        H  0.06245341  0.71369947  0.68717824     0.15900
O259        O  0.04845766  0.84632279  0.67054524    -0.60100
H260        H  0.51342462  0.83723133  0.72905314     0.14400
H261        H  0.42078333  0.81986211  0.79609148     0.46200
H262        H  0.04459973  0.69737460  0.75883502     0.41600
H263        H  0.03247397  0.84962936  0.65189288     0.45100
H264        H  0.53968493  0.73245411  0.82346176     0.36600
C265        C  0.45903877  0.76046315  0.24346604    -0.27700
C266        C  0.48231817  0.78665537  0.24144948     0.01900
C267        C  0.48628448  0.80852957  0.20740313     0.30000
C268        C  0.46722833  0.80408943  0.17619453    -0.19500
C269        C  0.44375923  0.77796753  0.17803652    -0.28900
C270        C  0.43995947  0.75584708  0.21221702     0.44000
C271        C  0.00257807  0.79032387  0.27472256     0.05200
O272        O  0.00866763  0.83457582  0.20438222    -0.57400
H273        H  0.47091870  0.82140353  0.15043761     0.18200
O274        O  0.41769125  0.72969254  0.21564136    -0.64100
H275        H  0.45587701  0.74295053  0.26922530     0.16600
C276        C  0.99269024  0.79942614  0.31242103     0.28900
C277        C  0.01189813  0.80074062  0.34372016    -0.25000
C278        C  0.04127024  0.79276547  0.33840747    -0.24300
C279        C  0.05126242  0.78511011  0.30026243     0.40300
C280        C  0.03197158  0.78373165  0.26897934    -0.26800
O281        O  0.46434732  0.80809010  0.31879510    -0.58600
H282        H  0.00351620  0.80740788  0.37242286     0.15900
O283        O  0.07971544  0.77823803  0.29312536    -0.60100
H284        H  0.03996808  0.77674478  0.24013417     0.14400
H285        H  0.42565843  0.70364225  0.20752309     0.46200
H286        H  0.45628731  0.78452490  0.33165021     0.41600
H287        H  0.08796875  0.80459623  0.28752696     0.45100
H288        H  0.00106224  0.86026455  0.21404424     0.36600
C289        C  0.21740002  0.72720247  0.73193333    -0.27700
C290        C  0.24661254  0.71886543  0.72731116     0.01900
C291        C  0.25692277  0.70718798  0.69057645     0.30000
C292        C  0.23823309  0.70476114  0.65882481    -0.19500
C293        C  0.20900783  0.71422243  0.66280347    -0.28900
C294        C  0.19861511  0.72503740  0.70012162     0.44000
C295        C  0.26624424  0.72170459  0.76102205     0.05200
O296        O  0.28512790  0.69687263  0.68578271    -0.57400
H297        H  0.24689004  0.69584834  0.63084305     0.18200
O298        O  0.17034478  0.73436054  0.70585358    -0.64100
H299        H  0.20920427  0.73589776  0.76025108     0.16600
C300        C  0.28829646  0.75001967  0.76237418     0.28900
C301        C  0.30748830  0.75095449  0.79372511    -0.25000
C302        C  0.30512311  0.72379437  0.82416096    -0.24300
C303        C  0.28250216  0.69587699  0.82290575     0.40300
C304        C  0.26340182  0.69505185  0.79151679    -0.26800
O305        O  0.29056542  0.77774536  0.73380619    -0.58600
H306        H  0.32413934  0.77326170  0.79424069     0.15900
O307        O  0.27918402  0.66851732  0.85160449    -0.60100
H308        H  0.24650637  0.67308095  0.79069329     0.14400
H309        H  0.16117398  0.70938627  0.71408222     0.46200
H310        H  0.30817620  0.77077548  0.71919357     0.41600
H311        H  0.26468452  0.68001174  0.86954763     0.45100
H312        H  0.29377914  0.71847998  0.67054718     0.36600
C313        C  0.24210134  0.71343486  0.19210800    -0.27700
C314        C  0.25311592  0.72401496  0.22855553     0.01900
C315        C  0.28226846  0.73356684  0.23231313     0.30000
C316        C  0.30008148  0.73257831  0.19951519    -0.19500
C317        C  0.28912192  0.72214515  0.16261434    -0.28900
C318        C  0.25972687  0.71217947  0.15936614     0.44000
C319        C  0.23354848  0.72548263  0.26213257     0.05200
O320        O  0.29344422  0.74418114  0.26782486    -0.57400
H321        H  0.32244565  0.74033451  0.20300423     0.18200
O322        O  0.24770555  0.70172650  0.12430992    -0.64100
H323        H  0.21962350  0.70602978  0.18905276     0.16600
C324        C  0.21299753  0.75562525  0.26546979     0.28900
C325        C  0.19331220  0.75542331  0.29604986    -0.25000
C326        C  0.19356855  0.72511074  0.32362798    -0.24300
C327        C  0.21420894  0.69464000  0.31989462     0.40300
C328        C  0.23407263  0.69519599  0.28942248    -0.26800
O329        O  0.21246737  0.78592762  0.23941042    -0.58600
H330        H  0.17801074  0.77941020  0.29833861     0.15900
O331        O  0.21523459  0.66414315  0.34570571    -0.60100
H332        H  0.24962152  0.67154296  0.28666108     0.14400
H333        H  0.24872101  0.67242018  0.12306827     0.46200
H334        H  0.19802864  0.77796135  0.21963914     0.41600
H335        H  0.20242512  0.64346346  0.33460072     0.45100
H336        H  0.29212103  0.77346797  0.26903916     0.36600
C337        C  0.50804722  0.19668361  0.68870299    -0.27700
C338        C  0.49951143  0.20956943  0.72574697     0.01900
C339        C  0.47151923  0.22423827  0.73094437     0.30000
C340        C  0.45273413  0.22656361  0.69909809    -0.19500
C341        C  0.46133876  0.21416844  0.66165686    -0.28900
C342        C  0.48941266  0.19876821  0.65693198     0.44000
C343        C  0.02066812  0.20979277  0.75804574     0.05200
O344        O  0.96288083  0.23837524  0.76662611    -0.57400
H345        H  0.43152113  0.23866814  0.70372152     0.18200
O346        O  0.49899770  0.18527861  0.62146068    -0.64100
H347        H  0.52947367  0.18517556  0.68429278     0.16600
C348        C  0.01592365  0.18858836  0.79232235     0.28900
C349        C  0.03554432  0.19134320  0.82310846    -0.25000
C350        C  0.06042485  0.21475422  0.82027603    -0.24300
C351        C  0.06587166  0.23410027  0.78489560     0.40300
C352        C  0.04604887  0.23163349  0.75436504    -0.26800
O353        O  0.49213246  0.16517417  0.79608120    -0.58600
H354        H  0.03094465  0.17551062  0.84952554     0.15900
O355        O  0.09021460  0.25611666  0.77989248    -0.60100
H356        H  0.05028060  0.24750504  0.72784393     0.14400
H357        H  0.50989366  0.20766462  0.61041017     0.46200
H358        H  0.49791950  0.13883407  0.78570532     0.41600
H359        H  0.10466563  0.23720603  0.76954416     0.45100
H360        H  0.94966121  0.21805652  0.77677961     0.36600
C361        C  0.99496744  0.19132744  0.19281964    -0.27700
C362        C  0.00305752  0.21220994  0.22663049     0.01900
C363        C  0.03043892  0.22973931  0.22815107     0.30000
C364        C  0.04875061  0.22732260  0.19586408    -0.19500
C365        C  0.04026061  0.20771021  0.16135281    -0.28900
C366        C  0.01321604  0.18882769  0.16053715     0.44000
C367        C  0.48266713  0.21574256  0.25986953     0.05200
O368        O  0.03927474  0.25021476  0.26071130    -0.57400
H369        H  0.06938029  0.24189058  0.19757303     0.18200
O370        O  0.00412510  0.16813191  0.12824338    -0.64100
H371        H  0.47431176  0.17679645  0.19141777     0.16600
C372        C  0.45473105  0.23053967  0.25459595     0.28900
C373        C  0.43576357  0.23337270  0.28616887    -0.25000
C374        C  0.44395210  0.22111438  0.32343298    -0.24300
C375        C  0.47209744  0.20662585  0.32868783     0.40300
C376        C  0.49108440  0.20413394  0.29715732    -0.26800
O377        O  0.44615705  0.24380774  0.21894331    -0.58600
H378        H  0.41447998  0.24502824  0.28131908     0.15900
O379        O  0.48172860  0.19619288  0.36478930    -0.60100
H380        H  0.01247692  0.19277683  0.30185006     0.14400
H381        H  0.01125438  0.14076786  0.13180216     0.46200
H382        H  0.43300921  0.22318534  0.20856092     0.41600
H383        H  0.47985109  0.16700850  0.36551501     0.45100
H384        H  0.03195639  0.27748383  0.25743074     0.36600
C385        C  0.25445512  0.31090649  0.80813443    -0.27700
C386        C  0.24601914  0.29292582  0.77303428     0.01900
C387        C  0.21861857  0.27578062  0.77028438     0.30000
C388        C  0.20045371  0.27570197  0.80282298    -0.19500
C389        C  0.20908156  0.29286907  0.83850488    -0.28900
C390        C  0.23633188  0.31118314  0.84057783     0.44000
C391        C  0.26669057  0.29043490  0.74031261     0.05200
O392        O  0.21008994  0.25704595  0.73658329    -0.57400
H393        H  0.17980110  0.26131768  0.80024045     0.18200
O394        O  0.24552583  0.32977118  0.87402598    -0.64100
H395        H  0.27540355  0.32451941  0.81050551     0.16600
C396        C  0.26184705  0.31024969  0.70530027     0.28900
C397        C  0.28183240  0.30720322  0.67493509    -0.25400
C398        C  0.30685194  0.28417003  0.67860905    -0.24300
C399        C  0.31180315  0.26499891  0.71424348     0.40300
C400        C  0.29184234  0.26826799  0.74456160    -0.26800
O401        O  0.23813050  0.33373734  0.70104735    -0.58600
H402        H  0.27747442  0.32272741  0.64826241     0.15900
O403        O  0.33582637  0.24248042  0.71975950    -0.60100
H404        H  0.29590181  0.25306951  0.77152084     0.14400
H405        H  0.25789266  0.31020283  0.88715346     0.46200
H406        H  0.22552456  0.31925720  0.68254675     0.41600
H407        H  0.34998735  0.26069945  0.73203925     0.45100
H408        H  0.19538538  0.27453647  0.72516068     0.36600
C409        C  0.27875137  0.27185074  0.26841791    -0.27700
C410        C  0.24947461  0.27867428  0.27472711     0.01900
C411        C  0.23961646  0.28551995  0.31280554     0.30000
C412        C  0.25886776  0.28561553  0.34387430    -0.19500
C413        C  0.28832187  0.27889748  0.33791353    -0.28900
C414        C  0.29812060  0.27163460  0.29959163     0.44000
C415        C  0.22918290  0.27801447  0.24163291     0.05200
O416        O  0.21114048  0.29234590  0.31997497    -0.57400
H417        H  0.25052429  0.29099220  0.37283907     0.18200
O418        O  0.32653023  0.26480381  0.29205685    -0.64100
H419        H  0.28656785  0.26613487  0.23923067     0.16600
C420        C  0.23220304  0.30423193  0.21056674     0.28900
C421        C  0.21262159  0.30315191  0.17971579    -0.25000
C422        C  0.18984626  0.27587310  0.17903158    -0.24300
C423        C  0.18674327  0.24991579  0.21068807     0.40300
C424        C  0.20635914  0.25111518  0.24141830    -0.26800
O425        O  0.25368494  0.33190217  0.21077303    -0.58600
H426        H  0.21548964  0.32363555  0.15612316     0.15900
O427        O  0.16510111  0.22251750  0.21164938    -0.60100
H428        H  0.20386608  0.23065596  0.26513279     0.14400
H429        H  0.32859426  0.23559481  0.29162999     0.46200
H430        H  0.26850101  0.32114817  0.19290693     0.41600
H431        H  0.14947846  0.23544990  0.22665498     0.45100
H432        H  0.20851268  0.32117656  0.31658291     0.36600
C433        C  0.47580931  0.96931261  0.02442539    -0.27700
C434        C  0.49653684  0.97414912  0.99542500     0.01900
C435        C  0.00486339  0.94128142  0.97247300     0.30000
C436        C  0.49218293  0.90433208  0.97858213    -0.19500
C437        C  0.47149190  0.89954011  0.00773761    -0.28900
C438        C  0.46337842  0.93251216  0.03077716     0.44000
C439        C  0.01028725  0.01326972  0.99146068     0.05200
O440        O  0.02639379  0.94455111  0.94557799    -0.57400
H441        H  0.99874760  0.87930024  0.96069491     0.18200
O442        O  0.44288390  0.92940040  0.05912241    -0.64100
H443        H  0.46912502  0.99434913  0.04223983     0.16600
C444        C  0.51189850  0.03255353  0.95550185     0.28900
C445        C  0.02521573  0.06951146  0.95324742    -0.25000
C446        C  0.03621432  0.08828084  0.98675714    -0.24300
C447        C  0.03394021  0.06926472  0.02285122     0.40300
C448        C  0.02119043  0.03211609  0.02487779    -0.26800
O449        O  0.50009742  0.01597682  0.92260024    -0.58600
H450        H  0.52650369  0.08380107  0.92532148     0.15900
O451        O  0.04449424  0.08632976  0.05633914    -0.60100
H452        H  0.02004756  0.01773671  0.05278015     0.14400
H453        H  0.42448276  0.93485288  0.04592290     0.46200
H454        H  0.47994328  0.02538102  0.92230037     0.41600
H455        H  0.06457153  0.07713945  0.05811831     0.45100
H456        H  0.01716115  0.93992868  0.91987650     0.36600
C457        C  0.24754570  0.54626736  0.96664927    -0.27700
C458        C  0.24585000  0.52944212  0.00371033     0.01900
C459        C  0.25727867  0.55041981  0.03582615     0.30000
C460        C  0.27074262  0.58691657  0.03039835    -0.19500
C461        C  0.27347948  0.60305053  0.99315585    -0.28900
C462        C  0.26116912  0.58269762  0.96120065     0.44000
C463        C  0.23387979  0.48894905  0.00791310     0.05200
O464        O  0.25754312  0.53399763  0.07207144    -0.57400
H465        H  0.28025510  0.60172793  0.05538818     0.18200
O466        O  0.26278635  0.59762856  0.92441981    -0.64100
H467        H  0.23864295  0.53073229  0.94166127     0.16600
C468        C  0.21276916  0.48042646  0.03584921     0.28900
C469        C  0.20254496  0.44174998  0.03957972    -0.25000
C470        C  0.21222623  0.41116652  0.01479837    -0.24300
C471        C  0.23311719  0.41977485  0.98656888     0.40300
C472        C  0.24381169  0.45827615  0.98344840    -0.26800
O473        O  0.20128098  0.50983791  0.05884452    -0.58600
H474        H  0.18609544  0.43603502  0.06096905     0.15900
O475        O  0.24321595  0.39088159  0.96176407    -0.60100
H476        H  0.26007903  0.46417391  0.96185310     0.14400
H477        H  0.24584263  0.61511357  0.92197607     0.46200
H478        H  0.18543730  0.52109481  0.04332216     0.41600
H479        H  0.25939990  0.37850877  0.97575520     0.45100
H480        H  0.24527655  0.55143931  0.08856595     0.36600
O481        O  0.67298536  0.27082556  0.02519649    -0.88400
C482        C  0.59351663  0.29333371  0.06752491     0.87600
Mg483      Mg  0.68570619  0.28637486  0.96753130     1.58100
O484        O  0.60694802  0.19386509  0.04451361    -0.88200
O485        O  0.67049256  0.21848566  0.06199911    -0.75500
C486        C  0.57958945  0.21966932  0.85472670     0.92700
O487        O  0.63036612  0.34119231  0.00501441    -0.75300
O488        O  0.59936693  0.24568502  0.85453230    -0.82800
Mg489      Mg  0.65253874  0.31632980  0.05933417     1.58000
C490        C  0.55075989  0.12681947  0.98376290     0.92600
O491        O  0.67519285  0.29626402  0.11578286    -0.81100
H492        H  0.63082480  0.14540648  0.05134906    -0.06400
C493        C  0.56573798  0.25554262  0.96025551     0.87500
O494        O  0.67836008  0.22256122  0.94593315    -0.75600
O495        O  0.61739495  0.27761173  0.06868397    -0.88300
O496        O  0.55209776  0.14917281  0.01376084    -0.81200
C497        C  0.55908093  0.20880694  0.12627762     0.92700
C498        C  0.67051596  0.27375897  0.14463460     0.92500
Mg499      Mg  0.59772638  0.17998998  0.94101014     1.58000
O500        O  0.57531451  0.19809315  0.88428113    -0.81100
O501        O  0.61961570  0.15549999  0.99540473    -0.75300
O502        O  0.58493004  0.22077982  0.12970349    -0.81200
O503        O  0.68792779  0.36075420  0.04908199    -0.82900
O504        O  0.66472654  0.27652068  0.86965349    -0.81200
C505        C  0.61920310  0.16401928  0.03151798     0.87000
O506        O  0.63280310  0.21897155  0.93109293    -0.88300
O507        O  0.57721374  0.22615213  0.97446529    -0.88400
O508        O  0.57886437  0.27752441  0.93651302    -0.75500
Mg509      Mg  0.62691557  0.22134580  0.09330311     1.58000
O510        O  0.54879334  0.19871558  0.09332369    -0.82900
H511        H  0.70524149  0.23225142  0.02946933    -0.06600
O512        O  0.64236353  0.30319416  0.95522063    -0.88100
H513        H  0.61810547  0.35147398  0.94946715    -0.06400
H514        H  0.65965766  0.17369867  0.92218699    -0.06600
C515        C  0.63009908  0.33278709  0.96881890     0.87000
C516        C  0.68392652  0.24062178  0.03863953     0.87500
C517        C  0.65692770  0.20394475  0.93212242     0.87600
H518        H  0.54423618  0.26334745  0.96908231    -0.06600
O519        O  0.57190733  0.27547129  0.05334236    -0.75600
Mg520      Mg  0.62256982  0.27489872  0.90584639     1.58000
H521        H  0.59122031  0.32363497  0.07750193    -0.06600
C522        C  0.69877599  0.37156557  0.01702072     0.92600
O523        O  0.70004014  0.30050019  0.90645689    -0.82800
C524        C  0.69017760  0.29002884  0.87338422     0.92600
O525        O  0.65008728  0.24888787  0.14428079    -0.82800
Mg526      Mg  0.56396572  0.21186116  0.03212976     1.58200
O527        O  0.69733874  0.34992477  0.98643264    -0.81100
O528        O  0.56204735  0.13639255  0.95162886    -0.82800
O529        O  0.92447058  0.76523846  0.02447546    -0.88400
C530        C  0.84787121  0.80069695  0.06726811     0.87600
Mg531      Mg  0.93801164  0.77643559  0.96631941     1.58100
O532        O  0.85381798  0.69935967  0.04662437    -0.88200
O533        O  0.91914099  0.71507713  0.06339883    -0.75500
C534        C  0.82559425  0.72584520  0.85735130     0.92700
O535        O  0.88737209  0.84063643  0.00234925    -0.75300
O536        O  0.84751347  0.74827005  0.85539733    -0.82800
Mg537      Mg  0.90794320  0.81460432  0.05710841     1.58000
C538        C  0.79089290  0.63937593  0.98840759     0.92600
O539        O  0.92936351  0.79445333  0.11383404    -0.81100
H540        H  0.87359151  0.64759691  0.05410414    -0.06400
C541        C  0.81658138  0.76487900  0.96142478     0.87500
O542        O  0.92526324  0.71359921  0.94710749    -0.75600
O543        O  0.87042189  0.78164168  0.06875658    -0.88300
O544        O  0.79491503  0.66181728  0.01794193    -0.81200
C545        C  0.80816246  0.72219778  0.12793847     0.92700
C546        C  0.92406719  0.77414377  0.14397536     0.92500
Mg547      Mg  0.84170852  0.68425037  0.94355164     1.58000
O548        O  0.82054384  0.70537987  0.88739561    -0.81100
O549        O  0.86208602  0.65777237  0.99825594    -0.75300
O550        O  0.83468941  0.73076820  0.13174830    -0.81200
O551        O  0.94624265  0.85252420  0.04476462    -0.82900
O552        O  0.91567695  0.76833656  0.86863121    -0.81200
C553        C  0.86324850  0.66740522  0.03411030     0.87000
O554        O  0.87972453  0.71712144  0.93192748    -0.88300
O555        O  0.82574437  0.73415140  0.97598675    -0.88400
O556        O  0.83114789  0.78421853  0.93699865    -0.75500
Mg557      Mg  0.87632597  0.72504269  0.09497213     1.58000
O558        O  0.79737465  0.71382245  0.09494339    -0.82900
H559        H  0.95428699  0.72324770  0.02980950    -0.06600
O560        O  0.89636527  0.79967969  0.95366541    -0.88100
H561        H  0.87596804  0.85103688  0.94652316    -0.06400
H562        H  0.90251316  0.66751701  0.92465355    -0.06600
C563        C  0.88650187  0.83130309  0.96640757     0.87000
C564        C  0.93366781  0.73449588  0.03897676     0.87500
C565        C  0.90240629  0.69830175  0.93359734     0.87600
H566        H  0.79597036  0.77618941  0.97055062    -0.06600
O567        O  0.82504808  0.78578944  0.05338294    -0.75600
Mg568      Mg  0.87393799  0.77395892  0.90550506     1.58000
H569        H  0.84790780  0.83139333  0.07652187    -0.06600
C570        C  0.95686231  0.86119712  0.01199415     0.92600
O571        O  0.95335494  0.78535620  0.90498279    -0.82800
C572        C  0.94227834  0.77663195  0.87216913     0.92600
O573        O  0.90249088  0.75107107  0.14530627    -0.82800
Mg574      Mg  0.81227672  0.72316599  0.03398584     1.58200
O575        O  0.95402877  0.83866958  0.98225458    -0.81100
O576        O  0.80237207  0.64662148  0.95574485    -0.82800
O577        O  0.92239541  0.23265537  0.47571330    -0.88400
C578        C  0.84547722  0.20036817  0.43310916     0.87600
Mg579      Mg  0.93576649  0.22018164  0.53364134     1.58100
O580        O  0.85467329  0.30107410  0.45306541    -0.88200
O581        O  0.91920251  0.28244380  0.43599593    -0.75500
C582        C  0.82676884  0.27980162  0.64480203     0.92700
O583        O  0.88344800  0.15956940  0.49797243    -0.75300
O584        O  0.84816762  0.25639327  0.64664916    -0.82800
Mg585      Mg  0.90514652  0.18399526  0.44291782     1.58000
C586        C  0.79534216  0.36561487  0.51097176     0.92600
O587        O  0.92778066  0.20374635  0.38675694    -0.81100
H588        H  0.87615793  0.35152874  0.44556066    -0.06400
C589        C  0.81551096  0.23950392  0.54048896     0.87500
O590        O  0.92575677  0.28386779  0.55312543    -0.75600
O591        O  0.86851578  0.21827306  0.43089617    -0.88300
O592        O  0.79849423  0.34296591  0.48142818    -0.81200
C593        C  0.80787827  0.27934947  0.37212731     0.92700
C594        C  0.92332981  0.22417564  0.35646096     0.92500
Mg595      Mg  0.84334762  0.31796828  0.55690098     1.58000
O596        O  0.82159301  0.29943527  0.61415444    -0.81100
O597        O  0.86434087  0.34222011  0.50144262    -0.75300
O598        O  0.83423116  0.26999229  0.36819657    -0.81200
O599        O  0.94261159  0.14458593  0.45492897    -0.82900
O600        O  0.91557382  0.22954040  0.63272445    -0.81200
C601        C  0.86517753  0.33241415  0.46558409     0.87000
O602        O  0.88038824  0.28346722  0.56912584    -0.88300
O603        O  0.82599349  0.26882010  0.52485487    -0.88400
O604        O  0.82924726  0.22007254  0.56572394    -0.75500
Mg605      Mg  0.87612614  0.27433366  0.40450283     1.58000
O606        O  0.79745678  0.28891599  0.40510491    -0.82900
H607        H  0.95372824  0.27252044  0.47034412    -0.06600
O608        O  0.89351510  0.19971630  0.54710639    -0.88100
H609        H  0.87076140  0.15012991  0.55350038    -0.06400
H610        H  0.90494594  0.33153585  0.57582470    -0.06600
C611        C  0.88239023  0.16902356  0.53394415     0.87000
C612        C  0.93280527  0.26253812  0.46100020     0.87500
C613        C  0.90365073  0.30077165  0.56698238     0.87600
H614        H  0.79437968  0.22967290  0.53189502    -0.06600
O615        O  0.82327472  0.21639374  0.44766278    -0.75600
Mg616      Mg  0.87286933  0.22749087  0.59620488     1.58000
H617        H  0.84458081  0.16963609  0.42405877    -0.06600
C618        C  0.95333956  0.13549131  0.48745919     0.92600
O619        O  0.95093037  0.20900963  0.59422821    -0.82800
C620        C  0.94142314  0.21778376  0.62781471     0.92600
O621        O  0.90172873  0.24712725  0.35403240    -0.82800
Mg622      Mg  0.81263440  0.27992316  0.46640993     1.58200
O623        O  0.95002252  0.15732659  0.51755903    -0.81100
O624        O  0.80526492  0.35691703  0.54416438    -0.82800
O625        O  0.67420853  0.73118446  0.47567670    -0.88400
C626        C  0.59521652  0.70661156  0.43183867     0.87600
Mg627      Mg  0.68710274  0.71666172  0.53344813     1.58100
O628        O  0.60798050  0.80626612  0.45522608    -0.88200
O629        O  0.67182458  0.78272217  0.43790580    -0.75500
C630        C  0.57781940  0.77554042  0.64332892     0.92700
O631        O  0.63274709  0.65884344  0.49510880    -0.75300
O632        O  0.59800598  0.75023221  0.64331064    -0.82800
Mg633      Mg  0.65471193  0.68485929  0.44155359     1.58000
C634        C  0.55120929  0.87264308  0.51550020     0.92600
O635        O  0.67751070  0.70522430  0.38613256    -0.81100
H636        H  0.63222978  0.85462329  0.44993241    -0.06400
C637        C  0.56668456  0.74243542  0.53735018     0.87500
O638        O  0.67799294  0.77982814  0.55485781    -0.75600
O639        O  0.61903041  0.72259042  0.43128564    -0.88300
O640        O  0.55263939  0.85050757  0.48534738    -0.81200
C641        C  0.56049309  0.79131462  0.37307319     0.92700
C642        C  0.67321945  0.72700814  0.35677144     0.92500
Mg643      Mg  0.59728306  0.81890673  0.55909159     1.58000
O644        O  0.57392300  0.79889680  0.61496339    -0.81100
O645        O  0.61991220  0.84393728  0.50533509    -0.75300
O646        O  0.58631031  0.77917375  0.36961599    -0.81200
O647        O  0.69099575  0.64243360  0.45249801    -0.82900
O648        O  0.66426395  0.72479603  0.63026389    -0.81200
C649        C  0.62016372  0.83582517  0.46909417     0.87000
O650        O  0.63233538  0.78070260  0.56929953    -0.88300
O651        O  0.57760614  0.77290846  0.52450082    -0.88400
O652        O  0.58001401  0.72007403  0.56056094    -0.75500
Mg653      Mg  0.62836551  0.77894975  0.40638401     1.58000
O654        O  0.55027312  0.80145301  0.40600816    -0.82900
H655        H  0.70645247  0.76974121  0.47102593    -0.06600
O656        O  0.64420844  0.69737080  0.54465979    -0.88100
H657        H  0.62126852  0.64793617  0.55078102    -0.06400
H658        H  0.65787398  0.82724293  0.57911589    -0.06600
C659        C  0.63267792  0.66713105  0.53127354     0.87000
C660        C  0.68518374  0.76113907  0.46181704     0.87500
C661        C  0.65604196  0.79698425  0.56881739     0.87600
H662        H  0.54554150  0.73390950  0.52755117    -0.06600
O663        O  0.57333286  0.72432048  0.44538572    -0.75600
Mg664      Mg  0.62293227  0.72395474  0.59298754     1.58000
H665        H  0.59316987  0.67631178  0.42174251    -0.06600
C666        C  0.70256757  0.63248614  0.48434263     0.92600
O667        O  0.70137043  0.70401804  0.59498226    -0.82800
C668        C  0.69040221  0.71406299  0.62756177     0.92600
O669        O  0.65237127  0.75127401  0.35564627    -0.82800
Mg670      Mg  0.56493470  0.78783144  0.46690744     1.58200
O671        O  0.70067988  0.65410010  0.51488445    -0.81100
O672        O  0.56208449  0.86273290  0.54779136    -0.82800
C673        C  0.49358597  0.04105585  0.46208237    -0.27700
C674        C  0.99680089  0.02436298  0.49889263     0.01900
C675        C  0.98650723  0.04492800  0.53188536     0.30000
C676        C  0.97315920  0.08153773  0.52776964    -0.19500
C677        C  0.96936558  0.09802212  0.49086624    -0.28900
C678        C  0.97990204  0.07746823  0.45783336     0.44000
C679        C  0.51075073  0.98541788  0.50272142     0.05200
O680        O  0.98887622  0.02913999  0.56825012    -0.57400
H681        H  0.96504961  0.09651718  0.55355044     0.18200
O682        O  0.47686205  0.09246688  0.42123786    -0.64100
H683        H  0.50181261  0.02585357  0.43650322     0.16600
C684        C  0.50115881  0.95232377  0.48107856     0.28900
C685        C  0.51431557  0.91561440  0.48590163    -0.25000
C686        C  0.53695620  0.91126457  0.51231490    -0.24300
C687        C  0.54665645  0.94445528  0.53378583     0.40300
C688        C  0.53368974  0.98122004  0.52865737    -0.26800
O689        O  0.47819488  0.95525232  0.45640024    -0.58600
H690        H  0.50660372  0.89038099  0.46916193     0.15900
O691        O  0.56969871  0.94174059  0.55833985    -0.60100
H692        H  0.54169800  0.00664578  0.54483567     0.14400
H693        H  0.49405284  0.10913574  0.41725438     0.46200
H694        H  0.48641825  0.95414904  0.42981384     0.41600
H695        H  0.56137286  0.93907447  0.58467086     0.45100
H696        H  0.97245746  0.01067966  0.57050432     0.36600
C697        C  0.77279880  0.46348239  0.46909256    -0.27700
C698        C  0.75676442  0.47988844  0.49976967     0.01900
C699        C  0.75239198  0.45773953  0.53363727     0.30000
C700        C  0.76462212  0.42010895  0.53673471    -0.19500
C701        C  0.78092326  0.40394546  0.50619209    -0.28900
C702        C  0.78484868  0.42587964  0.47207521     0.44000
C703        C  0.74407514  0.51965026  0.49536248     0.05200
O704        O  0.73512910  0.47190118  0.56296058    -0.57400
H705        H  0.76120564  0.40342476  0.56298140     0.18200
O706        O  0.80110517  0.41135465  0.44188163    -0.64100
H707        H  0.77633709  0.48018428  0.44288456     0.16600
C708        C  0.74882050  0.54999695  0.52306970     0.28900
C709        C  0.73557902  0.58674013  0.51878877    -0.25000
C710        C  0.71799782  0.59429375  0.48653247    -0.24300
C711        C  0.71429248  0.56427292  0.45796421     0.40300
C712        C  0.72728147  0.52742838  0.46257881    -0.26800
O713        O  0.76648598  0.54417269  0.55431503    -0.58600
H714        H  0.73912219  0.60938476  0.54087802     0.15900
O715        O  0.69760352  0.57017750  0.42575308    -0.60100
H716        H  0.72371275  0.50448728  0.44078104     0.14400
H717        H  0.82100150  0.41945782  0.44803211     0.46200
H718        H  0.78604645  0.55013794  0.54477628     0.41600
H719        H  0.67831463  0.56053608  0.43292631     0.45100
H720        H  0.74796174  0.47620594  0.58569329     0.36600
C721        C  0.96985741  0.78254558  0.76805351    -0.27700
C722        C  0.99910411  0.77478761  0.77330744     0.01900
C723        C  0.00946165  0.76740063  0.81087781     0.30000
C724        C  0.99071393  0.76829564  0.84262554    -0.19500
C725        C  0.96131342  0.77572258  0.83757098    -0.28900
C726        C  0.95095681  0.78282382  0.79976408     0.44000
C727        C  0.51880263  0.77489188  0.73956799     0.05200
O728        O  0.03809966  0.76083994  0.81696794    -0.57400
H729        H  0.99926132  0.76285296  0.87133480     0.18200
O730        O  0.92255040  0.79071272  0.79349587    -0.64100
H731        H  0.46165955  0.78833114  0.73921957     0.16600
C732        C  0.53284489  0.74007744  0.72744478     0.28900
C733        C  0.55215208  0.74099841  0.69635095    -0.25000
C734        C  0.55770318  0.77633402  0.67666689    -0.24300
C735        C  0.54320570  0.81108700  0.68843708     0.40300
C736        C  0.52402313  0.81019136  0.71980720    -0.26800
O737        O  0.52687485  0.70474556  0.74483890    -0.58600
H738        H  0.56245075  0.71370908  0.68718051     0.15900
O739        O  0.54845895  0.84633317  0.67054650    -0.60100
H740        H  0.01342733  0.83721991  0.72905588     0.14400
H741        H  0.92079419  0.81986873  0.79608531     0.46200
H742        H  0.54459110  0.69738715  0.75883820     0.41600
H743        H  0.53247802  0.84963856  0.65188962     0.45100
H744        H  0.03968486  0.73243388  0.82346290     0.36600
C745        C  0.95905134  0.76045492  0.24345796    -0.27700
C746        C  0.98233103  0.78664616  0.24143819     0.01900
C747        C  0.98629622  0.80851951  0.20739133     0.30000
C748        C  0.96723698  0.80408191  0.17618609    -0.19500
C749        C  0.94376637  0.77796285  0.17803216    -0.28900
C750        C  0.93996929  0.75584075  0.21221207     0.44000
C751        C  0.50256580  0.79032981  0.27473437     0.05200
O752        O  0.50865455  0.83458853  0.20439734    -0.57400
H753        H  0.97092590  0.82139613  0.15042887     0.18200
O754        O  0.91770082  0.72968706  0.21563910    -0.64100
H755        H  0.95589094  0.74294283  0.26921791     0.16600
C756        C  0.49267874  0.79942189  0.31243565     0.28900
C757        C  0.51188810  0.80073327  0.34373370    -0.25000
C758        C  0.54126102  0.79276539  0.33841722    -0.24300
C759        C  0.55125200  0.78511971  0.30027005     0.40300
C760        C  0.53195985  0.78374383  0.26898826    -0.26800
O761        O  0.96435934  0.80810047  0.31877649    -0.58600
H762        H  0.50350683  0.80739296  0.37243835     0.15900
O763        O  0.57970551  0.77825583  0.29312923    -0.60100
H764        H  0.53995604  0.77676420  0.24014136     0.14400
H765        H  0.92566696  0.70363640  0.20751922     0.46200
H766        H  0.95629616  0.78453805  0.33163291     0.41600
H767        H  0.58795536  0.80461745  0.28753625     0.45100
H768        H  0.50104538  0.86027775  0.21405162     0.36600
C769        C  0.71739846  0.72721955  0.73194139    -0.27700
C770        C  0.74660796  0.71885991  0.72732443     0.01900
C771        C  0.75691541  0.70715952  0.69059509     0.30000
C772        C  0.73822669  0.70473527  0.65884229    -0.19500
C773        C  0.70900517  0.71422117  0.66281466    -0.28900
C774        C  0.69861441  0.72505627  0.70012865     0.44000
C775        C  0.76624002  0.72170288  0.76103445     0.05200
O776        O  0.78511668  0.69682086  0.68580795    -0.57400
H777        H  0.74688156  0.69580510  0.63086446     0.18200
O778        O  0.67034756  0.73440335  0.70585482    -0.64100
H779        H  0.70920475  0.73593227  0.76025529     0.16600
C780        C  0.78829861  0.75000875  0.76237586     0.28900
C781        C  0.80749211  0.75094546  0.79372482    -0.25000
C782        C  0.80512231  0.72379610  0.82416928    -0.24300
C783        C  0.78249416  0.69588916  0.82292542     0.40300
C784        C  0.76339224  0.69506217  0.79153829    -0.26800
O785        O  0.79057294  0.77772340  0.73379832    -0.58600
H786        H  0.82414855  0.77324503  0.79423148     0.15900
O787        O  0.77916987  0.66854156  0.85163400    -0.60100
H788        H  0.74649148  0.67309889  0.79072332     0.14400
H789        H  0.66116632  0.70943969  0.71409213     0.46200
H790        H  0.80817994  0.77073834  0.71918437     0.41600
H791        H  0.76467578  0.68005108  0.86957602     0.45100
H792        H  0.79377796  0.71841709  0.67056823     0.36600
C793        C  0.74209854  0.71342908  0.19210509    -0.27700
C794        C  0.75311026  0.72401560  0.22855253     0.01900
C795        C  0.78226155  0.73357439  0.23231142     0.30000
C796        C  0.80007638  0.73258550  0.19951521    -0.19500
C797        C  0.78911990  0.72214558  0.16261451    -0.28900
C798        C  0.75972594  0.71217349  0.15936481     0.44000
C799        C  0.73354165  0.72548231  0.26212863     0.05200
O800        O  0.79343441  0.74419546  0.26782293    -0.57400
H801        H  0.82243949  0.74034700  0.20300540     0.18200
O802        O  0.74770751  0.70171365  0.12430864    -0.64100
H803        H  0.71962165  0.70601901  0.18904873     0.16600
C804        C  0.71299321  0.75562792  0.26546895     0.28900
C805        C  0.69330923  0.75542768  0.29605096    -0.25000
C806        C  0.69356443  0.72511376  0.32362778    -0.24300
C807        C  0.71420163  0.69463941  0.31989044     0.40300
C808        C  0.73406395  0.69519370  0.28941652    -0.26800
O809        O  0.71246441  0.78593162  0.23941107    -0.58600
H810        H  0.67800996  0.77941701  0.29834258     0.15900
O811        O  0.71522538  0.66414059  0.34569940    -0.60100
H812        H  0.74961079  0.67153835  0.28665273     0.14400
H813        H  0.74872714  0.67240727  0.12307003     0.46200
H814        H  0.69802457  0.77796778  0.21963975     0.41600
H815        H  0.70241316  0.64346406  0.33459413     0.45100
H816        H  0.79210719  0.77348240  0.26903392     0.36600
C817        C  0.00805092  0.19669932  0.68870228    -0.27700
C818        C  0.99951238  0.20957441  0.72574858     0.01900
C819        C  0.97151677  0.22423020  0.73094834     0.30000
C820        C  0.95273104  0.22655334  0.69910227    -0.19500
C821        C  0.96133835  0.21416868  0.66165887    -0.28900
C822        C  0.98941589  0.19878172  0.65693160     0.44000
C823        C  0.52066685  0.20978604  0.75804405     0.05200
O824        O  0.46288653  0.23839374  0.76661973    -0.57400
H825        H  0.93151525  0.23864765  0.70372776     0.18200
O826        O  0.99900449  0.18530381  0.62145795    -0.64100
H827        H  0.02947996  0.18520135  0.68428999     0.16600
C828        C  0.51591802  0.18858951  0.79232425     0.28900
C829        C  0.53553748  0.19134583  0.82311154    -0.25000
C830        C  0.56042077  0.21475084  0.82027672    -0.24300
C831        C  0.56587198  0.23408808  0.78489286     0.40300
C832        C  0.54605056  0.23161960  0.75436089    -0.26800
O833        O  0.99214162  0.16516574  0.79607659    -0.58600
H834        H  0.53093449  0.17551997  0.84953151     0.15900
O835        O  0.59021799  0.25609751  0.77988771    -0.60100
H836        H  0.55028543  0.24748488  0.72783702     0.14400
H837        H  0.00989372  0.20769760  0.61041140     0.46200
H838        H  0.99793158  0.13882969  0.78569370     0.41600
H839        H  0.60466740  0.23718107  0.76954517     0.45100
H840        H  0.44966362  0.21808183  0.77677790     0.36600
C841        C  0.49496485  0.19133371  0.19282320    -0.27700
C842        C  0.50305639  0.21221512  0.22663389     0.01900
C843        C  0.53043812  0.22974312  0.22815401     0.30000
C844        C  0.54874895  0.22732634  0.19586627    -0.19500
C845        C  0.54025763  0.20771491  0.16135505    -0.28900
C846        C  0.51321266  0.18883352  0.16054009     0.44000
C847        C  0.98266744  0.21573670  0.25986596     0.05200
O848        O  0.53927504  0.25021719  0.26071453    -0.57400
H849        H  0.56937900  0.24189338  0.19757466     0.18200
O850        O  0.50412055  0.16813862  0.12824640    -0.64100
H851        H  0.97431491  0.17678876  0.19141358     0.16600
C852        C  0.95472962  0.23052750  0.25459102     0.28900
C853        C  0.93576204  0.23336108  0.28616409    -0.25000
C854        C  0.94395206  0.22110946  0.32342985    -0.24300
C855        C  0.97209887  0.20662691  0.32868595     0.40300
C856        C  0.99108587  0.20413437  0.29715537    -0.26800
O857        O  0.94615382  0.24378924  0.21893677    -0.58600
H858        H  0.91447721  0.24501183  0.28131317     0.15900
O859        O  0.98173142  0.19620090  0.36478877    -0.60100
H860        H  0.51247436  0.19277183  0.30185061     0.14400
H861        H  0.51124672  0.14077313  0.13180650     0.46200
H862        H  0.93300729  0.22316427  0.20855806     0.41600
H863        H  0.97985709  0.16701641  0.36551838     0.45100
H864        H  0.53195624  0.27748633  0.25743580     0.36600
C865        C  0.75444930  0.31090704  0.80813220    -0.27700
C866        C  0.74601102  0.29293327  0.77302956     0.01900
C867        C  0.71860779  0.27579587  0.77027809     0.30000
C868        C  0.70044324  0.27571700  0.80281739    -0.19500
C869        C  0.70907372  0.29287638  0.83850170    -0.28900
C870        C  0.73632638  0.31118369  0.84057608     0.44000
C871        C  0.76668319  0.29043994  0.74030786     0.05200
O872        O  0.71007618  0.25706785  0.73657487    -0.57400
H873        H  0.67978867  0.26133836  0.80023334     0.18200
O874        O  0.74552340  0.32976439  0.87402652    -0.64100
H875        H  0.77539956  0.32451428  0.81050502     0.16600
C876        C  0.76183881  0.31024757  0.70529152     0.28900
C877        C  0.78182543  0.30719941  0.67492767    -0.25400
C878        C  0.80684722  0.28417163  0.67860658    -0.24300
C879        C  0.81179933  0.26500802  0.71424465     0.40300
C880        C  0.79183734  0.26827867  0.74456141    -0.26800
O881        O  0.73812060  0.33373107  0.70103364    -0.58600
H882        H  0.77746671  0.32271810  0.64825207     0.15900
O883        O  0.83582515  0.24249627  0.71976610    -0.60100
H884        H  0.79589795  0.25308589  0.77152350     0.14400
H885        H  0.75788722  0.31019068  0.88715104     0.46200
H886        H  0.72551930  0.31925092  0.68252643     0.41600
H887        H  0.84998412  0.26072150  0.73204117     0.45100
H888        H  0.69537066  0.27456052  0.72515800     0.36600
C889        C  0.77874804  0.27185301  0.26841781    -0.27700
C890        C  0.74947095  0.27867271  0.27472870     0.01900
C891        C  0.73961338  0.28551348  0.31280824     0.30000
C892        C  0.75886560  0.28560918  0.34387611    -0.19500
C893        C  0.78832010  0.27889575  0.33791350    -0.28900
C894        C  0.79811815  0.27163665  0.29959066     0.44000
C895        C  0.72917854  0.27801513  0.24163491     0.05200
O896        O  0.71113710  0.29233482  0.31997966    -0.57400
H897        H  0.75052257  0.29098234  0.37284170     0.18200
O898        O  0.82652805  0.26481011  0.29205410    -0.64100
H899        H  0.78656417  0.26614075  0.23922977     0.16600
C900        C  0.73219662  0.30423718  0.21057206     0.28900
C901        C  0.71261503  0.30315884  0.17972106    -0.25000
C902        C  0.68984141  0.27587736  0.17903348    -0.24300
C903        C  0.68674012  0.24991585  0.21068708     0.40300
C904        C  0.70635620  0.25111348  0.24141727    -0.26800
O905        O  0.75367668  0.33191015  0.21078173    -0.58600
H906        H  0.71548161  0.32364588  0.15613099     0.15900
O907        O  0.66509963  0.22251488  0.21164530    -0.60100
H908        H  0.70386452  0.23065089  0.26512920     0.14400
H909        H  0.82859417  0.23560144  0.29162591     0.46200
H910        H  0.76849373  0.32115986  0.19291475     0.41600
H911        H  0.64947654  0.23544328  0.22665344     0.45100
H912        H  0.70850682  0.32116554  0.31658844     0.36600
C913        C  0.97581735  0.96931315  0.02443023    -0.27700
C914        C  0.99654310  0.97414842  0.99542723     0.01900
C915        C  0.50486016  0.94128232  0.97247245     0.30000
C916        C  0.99218485  0.90433231  0.97858349    -0.19500
C917        C  0.97149531  0.89954156  0.00774116    -0.28900
C918        C  0.96338504  0.93251374  0.03078266     0.44000
C919        C  0.51027999  0.01327138  0.99146004     0.05200
O920        O  0.52639228  0.94455342  0.94558017    -0.57400
H921        H  0.49874799  0.87930012  0.96069500     0.18200
O922        O  0.94289228  0.92940322  0.05913041    -0.64100
H923        H  0.96913540  0.99434989  0.04224602     0.16600
C924        C  0.01190429  0.03255164  0.95550221     0.28900
C925        C  0.52520990  0.06951357  0.95324832    -0.25000
C926        C  0.53620732  0.08828283  0.98675892    -0.24300
C927        C  0.53393129  0.06926667  0.02285278     0.40300
C928        C  0.52118126  0.03211800  0.02487819    -0.26800
O929        O  0.00010139  0.01597520  0.92260169    -0.58600
H930        H  0.02650827  0.08379895  0.92532046     0.15900
O931        O  0.54448403  0.08633146  0.05634156    -0.60100
H932        H  0.52003710  0.01773850  0.05278040     0.14400
H933        H  0.92449092  0.93486085  0.04593421     0.46200
H934        H  0.97994739  0.02538043  0.92230337     0.41600
H935        H  0.56456053  0.07713873  0.05812363     0.45100
H936        H  0.51716145  0.93993099  0.91987753     0.36600
C937        C  0.74755233  0.54626704  0.96664995    -0.27700
C938        C  0.74585486  0.52944268  0.00371128     0.01900
C939        C  0.75728342  0.55042024  0.03582730     0.30000
C940        C  0.77074802  0.58691655  0.03039964    -0.19500
C941        C  0.77348594  0.60304999  0.99315710    -0.28900
C942        C  0.76117673  0.58269656  0.96120141     0.44000
C943        C  0.73388232  0.48895088  0.00791421     0.05200
O944        O  0.75754690  0.53399845  0.07207280    -0.57400
H945        H  0.78025996  0.60172812  0.05538974     0.18200
O946        O  0.76279585  0.59762636  0.92442027    -0.64100
H947        H  0.73864997  0.53073199  0.94166168     0.16600
C948        C  0.71277107  0.48043060  0.03585028     0.28900
C949        C  0.70254406  0.44175541  0.03958010    -0.25000
C950        C  0.71222304  0.41117114  0.01479806    -0.24300
C951        C  0.73311466  0.41977718  0.98656872     0.40300
C952        C  0.74381199  0.45827703  0.98344900    -0.26800
O953        O  0.70128495  0.50984314  0.05884616    -0.58600
H954        H  0.68609425  0.43604221  0.06096948     0.15900
O955        O  0.74321138  0.39088304  0.96176334    -0.60100
H956        H  0.76007974  0.46417288  0.96185373     0.14400
H957        H  0.74585384  0.61511499  0.92197595     0.46200
H958        H  0.68544371  0.52110500  0.04332252     0.41600
H959        H  0.75939447  0.37850793  0.97575405     0.45100
H960        H  0.74528155  0.55144153  0.08856712     0.36600
loop_ 
_geom_bond_atom_site_label_1 
_geom_bond_atom_site_label_2 
_geom_bond_distance 
_geom_bond_site_symmetry_2 
_ccdc_geom_bond_type 
O1           Mg3   2.144   1_554  S
O1           Mg9   2.147       .  S
O1           C36   1.238       .  S
C2           O15   1.237       .  S
C2           O39   1.270       .  A
C2           H41   1.081       .  S
Mg3          O32   2.147       .  S
Mg3          O47   2.301       .  S
Mg3          O43   2.263       .  S
Mg3          O14   2.297       .  S
O4          Mg46   2.143       .  S
O4          Mg29   2.122       .  S
O4           C25   1.238       .  S
O5           C36   1.272       .  A
O5          Mg29   2.305       .  S
C6            O8   1.276       .  A
C6           O20   1.276       .  A
C6          C350   1.492       .  S
O7           C35   1.273   1_554  A
O7           Mg9   2.306       .  S
O8          Mg40   2.283       .  S
Mg9          O15   2.127       .  S
Mg9          O23   2.265       .  S
Mg9          O11   2.322       .  S
C10          O48   1.271       .  A
C10          O16   1.272   1_556  A
C10         C446   1.474       .  S
O11          C18   1.279       .  A
H12          C25   1.081       .  S
C13          O27   1.236       .  S
C13          O28   1.270       .  A
C13          H38   1.081       .  S
O14          C37   1.271       .  A
O15         Mg29   2.141       .  S
O16         Mg46   2.271       .  S
C17          O30   1.273       .  A
C17          O22   1.278       .  A
C17         C365   1.495       .  S
C18          O45   1.272       .  A
C18         C422   1.489       .  S
Mg19         O26   2.133       .  S
Mg19         O27   2.151       .  S
Mg19         O20   2.305       .  S
Mg19         O21   2.297       .  S
Mg19         O48   2.258       .  S
O21          C25   1.272   1_556  A
O22         Mg29   2.328       .  S
O23          C42   1.273       .  A
O24          C44   1.279       .  A
O24         Mg40   2.332       .  S
O26         Mg40   2.147       .  S
O26          C37   1.237       .  S
O27         Mg46   2.141   1_556  S
O28         Mg40   2.300       .  S
Mg29         O45   2.250       .  S
O30         Mg46   2.272       .  S
H31          C36   1.081       .  S
O32         Mg40   2.146       .  S
O32          C35   1.239       .  S
H33          C35   1.081       .  S
H34          C37   1.081       .  S
O39         Mg46   2.291       .  S
C42          O47   1.275   1_554  A
C42         C470   1.482       .  S
O43          C44   1.273       .  A
C44         C389   1.494       .  S
O49         Mg51   2.138   1_554  S
O49         Mg57   2.142       .  S
O49          C84   1.237       .  S
C50          O63   1.236       .  S
C50          O87   1.269       .  A
C50          H89   1.081       .  S
Mg51         O80   2.145       .  S
Mg51         O95   2.292       .  S
Mg51         O91   2.254       .  S
Mg51         O62   2.294       .  S
O52         Mg94   2.148       .  S
O52         Mg77   2.140       .  S
O52          C73   1.238       .  S
O53          C84   1.271       .  A
O53         Mg77   2.299       .  S
C54          O56   1.276       .  A
C54          O68   1.275       .  A
C54         C302   1.490       .  S
O55          C83   1.272   1_554  A
O55         Mg57   2.301       .  S
O56         Mg88   2.281       .  S
Mg57         O63   2.118       .  S
Mg57         O71   2.245       .  S
Mg57         O59   2.305       .  S
C58          O96   1.272       .  A
C58          O64   1.273   1_556  A
C58         C461   1.484       .  S
O59          C66   1.277       .  A
H60          C73   1.081       .  S
C61          O75   1.237       .  S
C61          O76   1.270       .  A
C61          H86   1.081       .  S
O62          C85   1.271       .  A
O63         Mg77   2.146       .  S
O64         Mg94   2.287       .  S
C65          O78   1.270       .  A
C65          O70   1.279       .  A
C65         C317   1.489       .  S
C66          O93   1.276       .  A
C66         C269   1.494       .  S
Mg67         O74   2.136       .  S
Mg67         O75   2.143       .  S
Mg67         O68   2.294       .  S
Mg67         O69   2.302       .  S
Mg67         O96   2.277       .  S
O69          C73   1.272   1_556  A
O70         Mg77   2.327       .  S
O71          C90   1.270       .  A
O72          C92   1.279       .  A
O72         Mg88   2.333       .  S
O74         Mg88   2.155       .  S
O74          C85   1.238       .  S
O75         Mg94   2.131   1_556  S
O76         Mg88   2.298       .  S
Mg77         O93   2.285       .  S
O78         Mg94   2.237       .  S
H79          C84   1.081       .  S
O80         Mg88   2.134       .  S
O80          C83   1.239       .  S
H81          C83   1.081       .  S
H82          C85   1.081       .  S
O87         Mg94   2.290       .  S
C90          O95   1.273   1_554  A
C90         C437   1.475       .  S
O91          C92   1.272       .  A
C92         C245   1.486       .  S
O97         Mg99   2.136       .  S
O97        Mg105   2.138       .  S
O97         C132   1.236       .  S
C98         O111   1.238       .  S
C98         O135   1.270       .  A
C98         H137   1.081       .  S
Mg99        O128   2.144       .  S
Mg99        O143   2.288       .  S
Mg99        O139   2.239       .  S
Mg99        O110   2.294       .  S
O100       Mg142   2.142       .  S
O100       Mg125   2.138       .  S
O100        C121   1.239       .  S
O101        C132   1.270       .  A
O101       Mg125   2.299       .  S
C102        O104   1.277       .  A
C102        O116   1.277       .  A
C102        C398   1.496       .  S
O103        C131   1.275       .  A
O103       Mg105   2.312       .  S
O104       Mg136   2.292       .  S
Mg105       O111   2.111       .  S
Mg105       O119   2.242       .  S
Mg105       O107   2.310       .  S
C106        O144   1.271       .  A
C106        O112   1.272       .  A
C106        C221   1.472       .  S
O107        C114   1.276       .  A
H108        C121   1.081       .  S
C109        O123   1.236       .  S
C109        O124   1.270       .  A
C109        H134   1.081       .  S
O110        C133   1.270       .  A
O111       Mg125   2.144       .  S
O112       Mg142   2.284       .  S
C113        O126   1.272       .  A
C113        O118   1.278       .  A
C113        C413   1.490       .  S
C114        O141   1.277       .  A
C114        C374   1.493       .  S
Mg115       O122   2.132       .  S
Mg115       O123   2.140       .  S
Mg115       O116   2.312       .  S
Mg115       O117   2.307       .  S
Mg115       O144   2.260       .  S
O117        C121   1.273       .  A
O118       Mg125   2.325       .  S
O119        C138   1.268       .  A
O120        C140   1.282       .  A
O120       Mg136   2.357       .  S
O122       Mg136   2.151       .  S
O122        C133   1.237       .  S
O123       Mg142   2.144       .  S
O124       Mg136   2.303       .  S
Mg125       O141   2.291       .  S
O126       Mg142   2.250       .  S
H127        C132   1.081       .  S
O128       Mg136   2.150       .  S
O128        C131   1.240       .  S
H129        C131   1.081       .  S
H130        C133   1.081       .  S
O135       Mg142   2.289       .  S
C138        O143   1.273       .  A
C138        C197   1.478       .  S
O139        C140   1.269       .  A
C140        C341   1.496       .  S
O145       Mg147   2.141       .  S
O145       Mg153   2.146       .  S
O145        C180   1.237       .  S
C146        O159   1.237       .  S
C146        O183   1.270       .  A
C146        H185   1.081       .  S
Mg147       O176   2.144       .  S
Mg147       O191   2.291       .  S
Mg147       O187   2.266       .  S
Mg147       O158   2.289       .  S
O148       Mg190   2.145       .  S
O148       Mg173   2.131       .  S
O148        C169   1.239       .  S
O149        C180   1.271       .  A
O149       Mg173   2.304       .  S
C150        O152   1.274       .  A
C150        O164   1.278       .  A
C150        C254   1.483       .  S
O151        C179   1.271       .  A
O151       Mg153   2.296       .  S
O152       Mg184   2.258       .  S
Mg153       O159   2.132       .  S
Mg153       O167   2.256       .  S
Mg153       O155   2.299       .  S
C154        O192   1.271       .  A
C154        O160   1.272       .  A
C154        C206   1.472       .  S
O155        C162   1.275       .  A
H156        C169   1.081       .  S
C157        O171   1.237       .  S
C157        O172   1.271       .  A
C157        H182   1.081       .  S
O158        C181   1.269       .  A
O159       Mg173   2.146       .  S
O160       Mg190   2.277       .  S
C161        O174   1.272       .  A
C161        O166   1.279       .  A
C161        C278   1.494       .  S
C162        O189   1.275       .  A
C162        C326   1.486       .  S
Mg163       O170   2.118       .  S
Mg163       O171   2.150       .  S
Mg163       O164   2.320       .  S
Mg163       O165   2.303       .  S
Mg163       O192   2.251       .  S
O165        C169   1.273       .  A
O166       Mg173   2.336       .  S
O167        C186   1.271       .  A
O168        C188   1.277       .  A
O168       Mg184   2.317       .  S
O170       Mg184   2.141       .  S
O170        C181   1.237       .  S
O171       Mg190   2.136       .  S
O172       Mg184   2.297       .  S
Mg173       O189   2.266       .  S
O174       Mg190   2.258       .  S
H175        C180   1.081       .  S
O176       Mg184   2.126       .  S
O176        C179   1.238       .  S
H177        C179   1.081       .  S
H178        C181   1.081       .  S
O183       Mg190   2.295       .  S
C186        O191   1.274       .  A
C186        C230   1.482       .  S
O187        C188   1.274       .  A
C188        C293   1.492       .  S
C193        H203   1.083   1_655  S
C193        C674   1.402       .  A
C193        C678   1.397       .  A
C194        C679   1.477   1_545  S
C194        C195   1.407       .  A
C194        C673   1.402       .  A
C195        C196   1.395       .  A
C195        O200   1.372       .  S
C196        H201   1.084       .  S
C196        C197   1.405       .  A
C197        C198   1.412       .  A
C198        C673   1.397       .  A
C198        O682   1.372       .  S
C199        C674   1.477   1_465  S
C199        C204   1.408       .  A
C199        C208   1.403       .  A
O200        H216   0.992       .  S
O202        C678   1.372       .  S
O202        H213   0.992       .  S
C204        C205   1.397       .  A
C204        O209   1.372   1_455  S
C205        H210   1.084       .  S
C205        C206   1.403       .  A
C206        C207   1.409       .  A
C207        C208   1.397       .  A
C207        O211   1.372       .  S
C208        H212   1.084   1_565  S
O209        H214   0.993       .  S
O211        H215   0.991       .  S
C217        H227   1.084       .  S
C217        C218   1.402       .  A
C217        C222   1.396       .  A
C218        C223   1.479       .  S
C218        C219   1.409       .  A
C219        C220   1.400       .  A
C219        O224   1.373       .  S
C220        H225   1.084       .  S
C220        C221   1.402       .  A
C221        C222   1.410       .  A
C222        O226   1.372       .  S
C223        C228   1.408       .  A
C223        C232   1.402       .  A
O224        H240   0.994       .  S
O226        H237   0.991       .  S
C228        C229   1.398       .  A
C228        O233   1.371       .  S
C229        H234   1.083       .  S
C229        C230   1.407       .  A
C230        C231   1.413       .  A
C231        C232   1.397       .  A
C231        O235   1.372       .  S
C232        H236   1.084       .  S
O233        H238   0.993       .  S
O235        H239   0.991       .  S
C241        H731   1.084       .  S
C241        C242   1.403       .  A
C241        C246   1.404       .  A
C242        C727   1.482       .  S
C242        C243   1.406       .  A
C243        C244   1.400       .  A
C243        O248   1.373       .  S
C244        H249   1.084       .  S
C244        C245   1.407       .  A
C245        C246   1.412       .  A
C246        O250   1.371       .  S
C247        C722   1.482   1_455  S
C247        C252   1.406       .  A
C247        C256   1.404       .  A
O248        H264   0.992       .  S
O250        H261   0.992       .  S
H251        C721   1.084       .  S
C252        C253   1.400       .  A
C252        O257   1.373       .  S
C253        H258   1.084       .  S
C253        C254   1.406       .  A
C254        C255   1.411       .  A
C255        C256   1.404       .  A
C255        O259   1.372       .  S
C256        H740   1.084       .  S
O257        H262   0.991       .  S
O259        H263   0.992       .  S
H260        C736   1.084       .  S
C265        H275   1.083       .  S
C265        C266   1.405       .  A
C265        C270   1.403       .  A
C266        C751   1.489       .  S
C266        C267   1.407       .  A
C267        C268   1.401       .  A
C267        O752   1.372       .  S
C268        H273   1.083       .  S
C268        C269   1.410       .  A
C269        C270   1.414       .  A
C270        O274   1.371       .  S
C271        C746   1.489   1_455  S
C271        C276   1.407   1_455  A
C271        C280   1.405       .  A
O272        C747   1.372   1_455  S
O272        H288   0.991       .  S
O274        H285   0.993       .  S
C276        C277   1.402   1_655  A
C276        O761   1.373       .  S
C277        H282   1.083       .  S
C277        C278   1.410       .  A
C278        C279   1.414       .  A
C279        C280   1.404       .  A
C279        O283   1.371       .  S
C280        H284   1.083       .  S
O281        C756   1.373       .  S
O281        H286   0.991       .  S
O283        H287   0.992       .  S
C289        H299   1.084       .  S
C289        C290   1.402       .  A
C289        C294   1.404       .  A
C290        C295   1.480       .  S
C290        C291   1.404       .  A
C291        C292   1.400       .  A
C291        O296   1.372       .  S
C292        H297   1.083       .  S
C292        C293   1.409       .  A
C293        C294   1.416       .  A
C294        O298   1.371       .  S
C295        C300   1.406       .  A
C295        C304   1.400       .  A
O296        H312   0.992       .  S
O298        H309   0.992       .  S
C300        C301   1.402       .  A
C300        O305   1.372       .  S
C301        H306   1.083       .  S
C301        C302   1.407       .  A
C302        C303   1.417       .  A
C303        C304   1.400       .  A
C303        O307   1.372       .  S
C304        H308   1.084       .  S
O305        H310   0.991       .  S
O307        H311   0.992       .  S
C313        H323   1.084       .  S
C313        C314   1.397       .  A
C313        C318   1.396       .  A
C314        C319   1.474       .  S
C314        C315   1.405       .  A
C315        C316   1.402       .  A
C315        O320   1.371       .  S
C316        H321   1.083       .  S
C316        C317   1.409       .  A
C317        C318   1.418       .  A
C318        O322   1.372       .  S
C319        C324   1.404       .  A
C319        C328   1.400       .  A
O320        H336   0.992       .  S
O322        H333   0.992       .  S
C324        C325   1.398       .  A
C324        O329   1.372       .  S
C325        H330   1.083       .  S
C325        C326   1.407       .  A
C326        C327   1.416       .  A
C327        C328   1.401       .  A
C327        O331   1.372       .  S
C328        H332   1.084       .  S
O329        H334   0.992       .  S
O331        H335   0.992       .  S
C337        H347   1.084       .  S
C337        C338   1.399       .  A
C337        C342   1.400       .  A
C338        C823   1.487       .  S
C338        C339   1.409       .  A
C339        C340   1.407       .  A
C339        O824   1.372       .  S
C340        H345   1.083       .  S
C340        C341   1.408       .  A
C341        C342   1.420       .  A
C342        O346   1.372       .  S
C343        C818   1.487   1_455  S
C343        C348   1.407       .  A
C343        C352   1.403       .  A
O344        C819   1.372       .  S
O344        H360   0.991       .  S
O346        H357   0.992       .  S
C348        C349   1.402       .  A
C348        O833   1.371   1_455  S
C349        H354   1.083       .  S
C349        C350   1.410       .  A
C350        C351   1.414       .  A
C351        C352   1.401       .  A
C351        O355   1.371       .  S
C352        H356   1.084       .  S
O353        C828   1.371       .  S
O353        H358   0.992       .  S
O355        H359   0.993       .  S
C361        H851   1.083       .  S
C361        C362   1.403   1_655  A
C361        C366   1.402   1_655  A
C362        C847   1.492   1_455  S
C362        C363   1.410       .  A
C363        C364   1.404       .  A
C363        O368   1.372       .  S
C364        H369   1.083       .  S
C364        C365   1.408       .  A
C365        C366   1.415       .  A
C366        O370   1.371       .  S
C367        C842   1.492       .  S
C367        C372   1.410       .  A
C367        C376   1.403       .  A
O368        H384   0.991       .  S
O370        H381   0.993       .  S
H371        C841   1.083       .  S
C372        C373   1.404       .  A
C372        O377   1.372       .  S
C373        H378   1.083       .  S
C373        C374   1.406       .  A
C374        C375   1.416       .  A
C375        C376   1.403       .  A
C375        O379   1.372       .  S
C376        H860   1.083       .  S
O377        H382   0.992       .  S
O379        H383   0.991       .  S
H380        C856   1.083   1_455  S
C385        H395   1.084       .  S
C385        C386   1.400       .  A
C385        C390   1.401       .  A
C386        C391   1.485       .  S
C386        C387   1.407       .  A
C387        C388   1.405       .  A
C387        O392   1.372       .  S
C388        H393   1.083       .  S
C388        C389   1.409       .  A
C389        C390   1.417       .  A
C390        O394   1.372       .  S
C391        C396   1.405       .  A
C391        C400   1.403       .  A
O392        H408   0.991       .  S
O394        H405   0.992       .  S
C396        C397   1.404       .  A
C396        O401   1.372       .  S
C397        H402   1.083       .  S
C397        C398   1.411       .  A
C398        C399   1.414       .  A
C399        C400   1.403       .  A
C399        O403   1.371       .  S
C400        H404   1.084       .  S
O401        H406   0.991       .  S
O403        H407   0.994       .  S
C409        H419   1.083       .  S
C409        C410   1.403       .  A
C409        C414   1.403       .  A
C410        C415   1.481       .  S
C410        C411   1.405       .  A
C411        C412   1.397       .  A
C411        O416   1.372       .  S
C412        H417   1.083       .  S
C412        C413   1.409       .  A
C413        C414   1.414       .  A
C414        O418   1.371       .  S
C415        C420   1.406       .  A
C415        C424   1.401       .  A
O416        H432   0.991       .  S
O418        H429   0.992       .  S
C420        C421   1.401       .  A
C420        O425   1.372       .  S
C421        H426   1.083       .  S
C421        C422   1.408       .  A
C422        C423   1.416       .  A
C423        C424   1.399       .  A
C423        O427   1.372       .  S
C424        H428   1.084       .  S
O425        H430   0.992       .  S
O427        H431   0.992       .  S
C433        H443   1.084       .  S
C433        C434   1.402   1_554  A
C433        C438   1.393       .  A
C434        C919   1.478   1_565  S
C434        C915   1.409       .  A
C435        C914   1.409   1_455  A
C435        C916   1.401   1_455  A
C435        O440   1.373       .  S
C436        H921   1.084       .  S
C436        C437   1.404   1_556  A
C436        C915   1.401       .  A
C437        C438   1.410       .  A
C438        O442   1.372       .  S
C439        C914   1.478   1_445  S
C439        C448   1.402   1_556  A
C439        C924   1.409       .  A
O440        H456   0.994       .  S
H441        C916   1.084       .  S
O442        H453   0.991       .  S
C444        C919   1.409       .  A
C444        C925   1.399       .  A
C444        O449   1.371       .  S
C445        H930   1.084       .  S
C445        C446   1.405       .  A
C445        C924   1.399       .  A
C446        C447   1.411   1_556  A
C447        C448   1.393       .  A
C447        O451   1.372       .  S
C448        H452   1.084       .  S
O449        H454   0.994       .  S
H450        C925   1.084       .  S
O451        H455   0.990       .  S
C457        H467   1.084       .  S
C457        C458   1.406   1_556  A
C457        C462   1.401       .  A
C458        C463   1.488       .  S
C458        C459   1.409       .  A
C459        C460   1.400       .  A
C459        O464   1.373       .  S
C460        H465   1.084       .  S
C460        C461   1.406   1_554  A
C461        C462   1.411       .  A
C462        O466   1.372       .  S
C463        C468   1.410       .  A
C463        C472   1.405   1_554  A
O464        H480   0.994       .  S
O466        H477   0.992       .  S
C468        C469   1.400       .  A
C468        O473   1.371       .  S
C469        H474   1.084       .  S
C469        C470   1.406       .  A
C470        C471   1.411   1_554  A
C471        C472   1.400       .  A
C471        O475   1.372       .  S
C472        H476   1.084       .  S
O473        H478   0.992       .  S
O475        H479   0.992       .  S
O481       Mg483   2.144   1_554  S
O481       Mg489   2.147       .  S
O481        C516   1.238       .  S
C482        O495   1.237       .  S
C482        O519   1.270       .  A
C482        H521   1.081       .  S
Mg483       O512   2.147       .  S
Mg483       O527   2.301       .  S
Mg483       O523   2.263       .  S
Mg483       O494   2.297       .  S
O484       Mg526   2.143       .  S
O484       Mg509   2.122       .  S
O484        C505   1.238       .  S
O485        C516   1.272       .  A
O485       Mg509   2.305       .  S
C486        O488   1.276       .  A
C486        O500   1.276       .  A
C486        C830   1.492       .  S
O487        C515   1.273   1_554  A
O487       Mg489   2.306       .  S
O488       Mg520   2.283       .  S
Mg489       O495   2.127       .  S
Mg489       O503   2.265       .  S
Mg489       O491   2.322       .  S
C490        O528   1.271       .  A
C490        O496   1.272   1_556  A
C490        C926   1.474       .  S
O491        C498   1.279       .  A
H492        C505   1.081       .  S
C493        O507   1.236       .  S
C493        O508   1.270       .  A
C493        H518   1.081       .  S
O494        C517   1.271       .  A
O495       Mg509   2.141       .  S
O496       Mg526   2.271       .  S
C497        O510   1.273       .  A
C497        O502   1.278       .  A
C497        C845   1.495       .  S
C498        O525   1.272       .  A
C498        C902   1.489       .  S
Mg499       O506   2.133       .  S
Mg499       O507   2.151       .  S
Mg499       O500   2.305       .  S
Mg499       O501   2.297       .  S
Mg499       O528   2.258       .  S
O501        C505   1.272   1_556  A
O502       Mg509   2.328       .  S
O503        C522   1.273       .  A
O504        C524   1.279       .  A
O504       Mg520   2.332       .  S
O506       Mg520   2.147       .  S
O506        C517   1.237       .  S
O507       Mg526   2.141   1_556  S
O508       Mg520   2.300       .  S
Mg509       O525   2.250       .  S
O510       Mg526   2.272       .  S
H511        C516   1.081       .  S
O512       Mg520   2.146       .  S
O512        C515   1.239       .  S
H513        C515   1.081       .  S
H514        C517   1.081       .  S
O519       Mg526   2.291       .  S
C522        O527   1.275   1_554  A
C522        C950   1.482       .  S
O523        C524   1.273       .  A
C524        C869   1.494       .  S
O529       Mg531   2.138   1_554  S
O529       Mg537   2.142       .  S
O529        C564   1.237       .  S
C530        O543   1.236       .  S
C530        O567   1.269       .  A
C530        H569   1.081       .  S
Mg531       O560   2.145       .  S
Mg531       O575   2.292       .  S
Mg531       O571   2.254       .  S
Mg531       O542   2.294       .  S
O532       Mg574   2.148       .  S
O532       Mg557   2.140       .  S
O532        C553   1.238       .  S
O533        C564   1.271       .  A
O533       Mg557   2.299       .  S
C534        O536   1.276       .  A
C534        O548   1.275       .  A
C534        C782   1.490       .  S
O535        C563   1.272   1_554  A
O535       Mg537   2.301       .  S
O536       Mg568   2.281       .  S
Mg537       O543   2.118       .  S
Mg537       O551   2.245       .  S
Mg537       O539   2.305       .  S
C538        O576   1.272       .  A
C538        O544   1.273   1_556  A
C538        C941   1.484       .  S
O539        C546   1.277       .  A
H540        C553   1.081       .  S
C541        O555   1.237       .  S
C541        O556   1.270       .  A
C541        H566   1.081       .  S
O542        C565   1.271       .  A
O543       Mg557   2.146       .  S
O544       Mg574   2.287       .  S
C545        O558   1.270       .  A
C545        O550   1.279       .  A
C545        C797   1.489       .  S
C546        O573   1.276       .  A
C546        C749   1.494       .  S
Mg547       O554   2.136       .  S
Mg547       O555   2.143       .  S
Mg547       O548   2.294       .  S
Mg547       O549   2.302       .  S
Mg547       O576   2.277       .  S
O549        C553   1.272   1_556  A
O550       Mg557   2.327       .  S
O551        C570   1.270       .  A
O552        C572   1.279       .  A
O552       Mg568   2.333       .  S
O554       Mg568   2.155       .  S
O554        C565   1.238       .  S
O555       Mg574   2.131   1_556  S
O556       Mg568   2.298       .  S
Mg557       O573   2.285       .  S
O558       Mg574   2.237       .  S
H559        C564   1.081       .  S
O560       Mg568   2.134       .  S
O560        C563   1.239       .  S
H561        C563   1.081       .  S
H562        C565   1.081       .  S
O567       Mg574   2.290       .  S
C570        O575   1.273   1_554  A
C570        C917   1.475       .  S
O571        C572   1.272       .  A
C572        C725   1.486       .  S
O577       Mg579   2.136       .  S
O577       Mg585   2.138       .  S
O577        C612   1.236       .  S
C578        O591   1.238       .  S
C578        O615   1.270       .  A
C578        H617   1.081       .  S
Mg579       O608   2.144       .  S
Mg579       O623   2.288       .  S
Mg579       O619   2.239       .  S
Mg579       O590   2.294       .  S
O580       Mg622   2.142       .  S
O580       Mg605   2.138       .  S
O580        C601   1.239       .  S
O581        C612   1.270       .  A
O581       Mg605   2.299       .  S
C582        O584   1.277       .  A
C582        O596   1.277       .  A
C582        C878   1.496       .  S
O583        C611   1.275       .  A
O583       Mg585   2.312       .  S
O584       Mg616   2.292       .  S
Mg585       O591   2.111       .  S
Mg585       O599   2.242       .  S
Mg585       O587   2.310       .  S
C586        O624   1.271       .  A
C586        O592   1.272       .  A
C586        C701   1.472       .  S
O587        C594   1.276       .  A
H588        C601   1.081       .  S
C589        O603   1.236       .  S
C589        O604   1.270       .  A
C589        H614   1.081       .  S
O590        C613   1.270       .  A
O591       Mg605   2.144       .  S
O592       Mg622   2.284       .  S
C593        O606   1.272       .  A
C593        O598   1.278       .  A
C593        C893   1.490       .  S
C594        O621   1.277       .  A
C594        C854   1.493       .  S
Mg595       O602   2.132       .  S
Mg595       O603   2.140       .  S
Mg595       O596   2.312       .  S
Mg595       O597   2.307       .  S
Mg595       O624   2.260       .  S
O597        C601   1.273       .  A
O598       Mg605   2.325       .  S
O599        C618   1.268       .  A
O600        C620   1.282       .  A
O600       Mg616   2.357       .  S
O602       Mg616   2.151       .  S
O602        C613   1.237       .  S
O603       Mg622   2.144       .  S
O604       Mg616   2.303       .  S
Mg605       O621   2.291       .  S
O606       Mg622   2.250       .  S
H607        C612   1.081       .  S
O608       Mg616   2.150       .  S
O608        C611   1.240       .  S
H609        C611   1.081       .  S
H610        C613   1.081       .  S
O615       Mg622   2.289       .  S
C618        O623   1.273       .  A
C618        C677   1.478       .  S
O619        C620   1.269       .  A
C620        C821   1.497       .  S
O625       Mg627   2.141       .  S
O625       Mg633   2.146       .  S
O625        C660   1.237       .  S
C626        O639   1.237       .  S
C626        O663   1.270       .  A
C626        H665   1.081       .  S
Mg627       O656   2.144       .  S
Mg627       O671   2.291       .  S
Mg627       O667   2.266       .  S
Mg627       O638   2.289       .  S
O628       Mg670   2.145       .  S
O628       Mg653   2.131       .  S
O628        C649   1.239       .  S
O629        C660   1.271       .  A
O629       Mg653   2.304       .  S
C630        O632   1.274       .  A
C630        O644   1.278       .  A
C630        C734   1.483       .  S
O631        C659   1.271       .  A
O631       Mg633   2.296       .  S
O632       Mg664   2.258       .  S
Mg633       O639   2.132       .  S
Mg633       O647   2.256       .  S
Mg633       O635   2.299       .  S
C634        O672   1.271       .  A
C634        O640   1.272       .  A
C634        C686   1.472       .  S
O635        C642   1.275       .  A
H636        C649   1.081       .  S
C637        O651   1.237       .  S
C637        O652   1.271       .  A
C637        H662   1.081       .  S
O638        C661   1.269       .  A
O639       Mg653   2.146       .  S
O640       Mg670   2.277       .  S
C641        O654   1.272       .  A
C641        O646   1.279       .  A
C641        C758   1.494       .  S
C642        O669   1.275       .  A
C642        C806   1.486       .  S
Mg643       O650   2.118       .  S
Mg643       O651   2.150       .  S
Mg643       O644   2.320       .  S
Mg643       O645   2.303       .  S
Mg643       O672   2.251       .  S
O645        C649   1.273       .  A
O646       Mg653   2.336       .  S
O647        C666   1.271       .  A
O648        C668   1.277       .  A
O648       Mg664   2.317       .  S
O650       Mg664   2.141       .  S
O650        C661   1.237       .  S
O651       Mg670   2.135       .  S
O652       Mg664   2.297       .  S
Mg653       O669   2.266       .  S
O654       Mg670   2.258       .  S
H655        C660   1.081       .  S
O656       Mg664   2.126       .  S
O656        C659   1.238       .  S
H657        C659   1.081       .  S
H658        C661   1.081       .  S
O663       Mg670   2.295       .  S
C666        O671   1.274       .  A
C666        C710   1.482       .  S
O667        C668   1.274       .  A
C668        C773   1.492       .  S
C673        H683   1.083       .  S
C674        C675   1.407       .  A
C675        C676   1.395       .  A
C675        O680   1.372       .  S
C676        H681   1.084       .  S
C676        C677   1.405       .  A
C677        C678   1.412       .  A
C679        C684   1.408       .  A
C679        C688   1.403       .  A
O680        H696   0.992       .  S
O682        H693   0.992       .  S
C684        C685   1.397       .  A
C684        O689   1.372       .  S
C685        H690   1.084       .  S
C685        C686   1.403       .  A
C686        C687   1.409       .  A
C687        C688   1.397       .  A
C687        O691   1.372       .  S
C688        H692   1.084   1_565  S
O689        H694   0.993       .  S
O691        H695   0.991       .  S
C697        H707   1.084       .  S
C697        C698   1.402       .  A
C697        C702   1.396       .  A
C698        C703   1.479       .  S
C698        C699   1.409       .  A
C699        C700   1.400       .  A
C699        O704   1.373       .  S
C700        H705   1.084       .  S
C700        C701   1.402       .  A
C701        C702   1.410       .  A
C702        O706   1.372       .  S
C703        C708   1.408       .  A
C703        C712   1.402       .  A
O704        H720   0.994       .  S
O706        H717   0.991       .  S
C708        C709   1.398       .  A
C708        O713   1.371       .  S
C709        H714   1.083       .  S
C709        C710   1.407       .  A
C710        C711   1.413       .  A
C711        C712   1.397       .  A
C711        O715   1.372       .  S
C712        H716   1.084       .  S
O713        H718   0.993       .  S
O715        H719   0.991       .  S
C721        C722   1.403       .  A
C721        C726   1.404       .  A
C722        C723   1.406   1_655  A
C723        C724   1.400   1_455  A
C723        O728   1.373       .  S
C724        H729   1.084       .  S
C724        C725   1.407       .  A
C725        C726   1.412       .  A
C726        O730   1.371       .  S
C727        C732   1.406       .  A
C727        C736   1.404       .  A
O728        H744   0.992       .  S
O730        H741   0.992       .  S
C732        C733   1.400       .  A
C732        O737   1.373       .  S
C733        H738   1.084       .  S
C733        C734   1.406       .  A
C734        C735   1.411       .  A
C735        C736   1.404       .  A
C735        O739   1.372       .  S
O737        H742   0.991       .  S
O739        H743   0.992       .  S
C745        H755   1.083       .  S
C745        C746   1.405       .  A
C745        C750   1.403       .  A
C746        C747   1.407       .  A
C747        C748   1.401       .  A
C748        H753   1.083       .  S
C748        C749   1.410       .  A
C749        C750   1.414       .  A
C750        O754   1.371       .  S
C751        C756   1.407       .  A
C751        C760   1.405       .  A
O752        H768   0.991       .  S
O754        H765   0.993       .  S
C756        C757   1.402       .  A
C757        H762   1.083       .  S
C757        C758   1.410       .  A
C758        C759   1.414       .  A
C759        C760   1.404       .  A
C759        O763   1.371       .  S
C760        H764   1.083       .  S
O761        H766   0.991       .  S
O763        H767   0.992       .  S
C769        H779   1.084       .  S
C769        C770   1.402       .  A
C769        C774   1.404       .  A
C770        C775   1.480       .  S
C770        C771   1.404       .  A
C771        C772   1.400       .  A
C771        O776   1.372       .  S
C772        H777   1.083       .  S
C772        C773   1.409       .  A
C773        C774   1.416       .  A
C774        O778   1.371       .  S
C775        C780   1.406       .  A
C775        C784   1.400       .  A
O776        H792   0.992       .  S
O778        H789   0.992       .  S
C780        C781   1.402       .  A
C780        O785   1.372       .  S
C781        H786   1.083       .  S
C781        C782   1.407       .  A
C782        C783   1.417       .  A
C783        C784   1.400       .  A
C783        O787   1.372       .  S
C784        H788   1.084       .  S
O785        H790   0.991       .  S
O787        H791   0.992       .  S
C793        H803   1.084       .  S
C793        C794   1.397       .  A
C793        C798   1.396       .  A
C794        C799   1.474       .  S
C794        C795   1.405       .  A
C795        C796   1.402       .  A
C795        O800   1.371       .  S
C796        H801   1.083       .  S
C796        C797   1.409       .  A
C797        C798   1.418       .  A
C798        O802   1.372       .  S
C799        C804   1.404       .  A
C799        C808   1.400       .  A
O800        H816   0.993       .  S
O802        H813   0.992       .  S
C804        C805   1.398       .  A
C804        O809   1.372       .  S
C805        H810   1.083       .  S
C805        C806   1.407       .  A
C806        C807   1.416       .  A
C807        C808   1.401       .  A
C807        O811   1.372       .  S
C808        H812   1.084       .  S
O809        H814   0.992       .  S
O811        H815   0.992       .  S
C817        H827   1.084       .  S
C817        C818   1.399   1_455  A
C817        C822   1.400   1_455  A
C818        C819   1.409       .  A
C819        C820   1.407       .  A
C820        H825   1.083       .  S
C820        C821   1.408       .  A
C821        C822   1.420       .  A
C822        O826   1.372       .  S
C823        C828   1.407       .  A
C823        C832   1.403       .  A
O824        H840   0.991       .  S
O826        H837   0.992   1_655  S
C828        C829   1.402       .  A
C829        H834   1.083       .  S
C829        C830   1.410       .  A
C830        C831   1.414       .  A
C831        C832   1.401       .  A
C831        O835   1.371       .  S
C832        H836   1.084       .  S
O833        H838   0.992       .  S
O835        H839   0.993       .  S
C841        C842   1.403       .  A
C841        C846   1.402       .  A
C842        C843   1.410       .  A
C843        C844   1.404       .  A
C843        O848   1.372       .  S
C844        H849   1.083       .  S
C844        C845   1.408       .  A
C845        C846   1.415       .  A
C846        O850   1.371       .  S
C847        C852   1.410       .  A
C847        C856   1.403       .  A
O848        H864   0.991       .  S
O850        H861   0.993       .  S
C852        C853   1.404       .  A
C852        O857   1.372       .  S
C853        H858   1.083       .  S
C853        C854   1.406       .  A
C854        C855   1.416       .  A
C855        C856   1.403       .  A
C855        O859   1.372       .  S
O857        H862   0.992       .  S
O859        H863   0.991       .  S
C865        H875   1.084       .  S
C865        C866   1.400       .  A
C865        C870   1.401       .  A
C866        C871   1.485       .  S
C866        C867   1.408       .  A
C867        C868   1.405       .  A
C867        O872   1.372       .  S
C868        H873   1.083       .  S
C868        C869   1.409       .  A
C869        C870   1.417       .  A
C870        O874   1.372       .  S
C871        C876   1.405       .  A
C871        C880   1.403       .  A
O872        H888   0.991       .  S
O874        H885   0.992       .  S
C876        C877   1.404       .  A
C876        O881   1.372       .  S
C877        H882   1.083       .  S
C877        C878   1.411       .  A
C878        C879   1.414       .  A
C879        C880   1.403       .  A
C879        O883   1.371       .  S
C880        H884   1.084       .  S
O881        H886   0.991       .  S
O883        H887   0.994       .  S
C889        H899   1.083       .  S
C889        C890   1.403       .  A
C889        C894   1.403       .  A
C890        C895   1.481       .  S
C890        C891   1.405       .  A
C891        C892   1.397       .  A
C891        O896   1.372       .  S
C892        H897   1.083       .  S
C892        C893   1.409       .  A
C893        C894   1.414       .  A
C894        O898   1.371       .  S
C895        C900   1.406       .  A
C895        C904   1.401       .  A
O896        H912   0.991       .  S
O898        H909   0.992       .  S
C900        C901   1.401       .  A
C900        O905   1.372       .  S
C901        H906   1.083       .  S
C901        C902   1.408       .  A
C902        C903   1.416       .  A
C903        C904   1.399       .  A
C903        O907   1.372       .  S
C904        H908   1.084       .  S
O905        H910   0.992       .  S
O907        H911   0.992       .  S
C913        H923   1.084       .  S
C913        C914   1.402   1_554  A
C913        C918   1.393       .  A
C915        O920   1.373       .  S
C916        C917   1.404   1_556  A
C917        C918   1.410       .  A
C918        O922   1.372       .  S
C919        C928   1.402   1_556  A
O920        H936   0.994       .  S
O922        H933   0.991       .  S
C924        O929   1.371       .  S
C925        C926   1.405       .  A
C926        C927   1.411   1_556  A
C927        C928   1.393       .  A
C927        O931   1.372       .  S
C928        H932   1.084       .  S
O929        H934   0.994   1_455  S
O931        H935   0.990       .  S
C937        H947   1.084       .  S
C937        C938   1.406   1_556  A
C937        C942   1.401       .  A
C938        C943   1.488       .  S
C938        C939   1.409       .  A
C939        C940   1.400       .  A
C939        O944   1.373       .  S
C940        H945   1.084       .  S
C940        C941   1.406   1_554  A
C941        C942   1.411       .  A
C942        O946   1.372       .  S
C943        C948   1.410       .  A
C943        C952   1.405   1_554  A
O944        H960   0.994       .  S
O946        H957   0.992       .  S
C948        C949   1.400       .  A
C948        O953   1.371       .  S
C949        H954   1.084       .  S
C949        C950   1.406       .  A
C950        C951   1.411   1_554  A
C951        C952   1.400       .  A
C951        O955   1.372       .  S
C952        H956   1.084       .  S
O953        H958   0.992       .  S
O955        H959   0.992       .  S
