geometry optimzed in LAMMPS
_audit_creation_date              2020-12-01 
_audit_creation_method            'lammps2cif' 
_symmetry_space_group_name_H-M    'P1' 
_symmetry_Int_Tables_number       1 
_symmetry_cell_setting            triclinic 
loop_ 
_symmetry_equiv_pos_as_xyz 
  x,y,z 
_cell_length_a                    47.40184631 
_cell_length_b                    47.415722902609474 
_cell_length_c                    47.411664646914886 
_cell_angle_alpha                 89.94063235112726 
_cell_angle_beta                  90.00862389035345 
_cell_angle_gamma                 89.93375463979278 
loop_ 
_atom_site_label 
_atom_site_type_symbol 
_atom_site_fract_x 
_atom_site_fract_y 
_atom_site_fract_z 
_atom_site_charge 
C1          C  0.99835953  0.08416258  0.18013721     0.43700
N2          N  0.48596022  0.05935677  0.21567211     0.02600
C3          C  0.07083833  0.47488928  0.29927955    -0.04100
H4          H  0.07233278  0.45044250  0.19060232     0.08100
C5          C  0.46941762  0.42640707  0.19800845    -0.05600
Co6        Co  0.03565731  0.03551088  0.24634240     0.74200
N7          N  0.05397575  0.48321728  0.21641176    -0.24800
Co8        Co  0.03164119  0.46253454  0.24808852     0.74100
C9          C  0.99434292  0.41455354  0.18452431     0.43800
N10         N  0.43763793  0.48959690  0.21806555     0.02200
N11         N  0.00750671  0.44128478  0.21824472     0.02300
N12         N  0.07291839  0.02261228  0.29762301    -0.45600
H13         H  0.04552183  0.07611390  0.18829478     0.08100
N14         N  0.05562192  0.01099263  0.21567154     0.02600
N15         N  0.00845184  0.44286390  0.27979504     0.02400
C16         C  0.49636504  0.41832525  0.31556116     0.44000
N17         N  0.43926885  0.01742369  0.21744724    -0.24200
C18         C  0.02513026  0.07533493  0.29773940    -0.05200
N19         N  0.47583395  0.07524706  0.19500243    -0.45400
N20         N  0.01876061  0.42717684  0.30051063    -0.45600
C21         C  0.50035933  0.08724131  0.31144493     0.43700
N22         N  0.05656157  0.01238856  0.27741076     0.02600
N23         N  0.43998669  0.01894402  0.27887870    -0.24300
N24         N  0.01377492  0.05776537  0.21538652    -0.24800
N25         N  0.43841134  0.49112630  0.27969889     0.02200
H26         H  0.42077088  0.05176225  0.30399500     0.08100
H27         H  0.44911941  0.42623919  0.30770041     0.08200
N28         N  0.05503815  0.48460621  0.27791689    -0.24800
N29         N  0.47968409  0.44276825  0.21867741    -0.24400
N30         N  0.48686732  0.06087456  0.27743066     0.02600
C31         C  0.08054669  0.99719255  0.18072778     0.44000
C32         C  0.42332759  0.02705196  0.19614023    -0.05700
N33         N  0.48062995  0.44442217  0.28022063    -0.24400
H34         H  0.44735735  0.42286933  0.19344856     0.08200
N35         N  0.07163838  0.02028451  0.19472025    -0.45600
H36         H  0.42001836  0.04895358  0.19068362     0.08100
C37         C  0.41260914  0.50500051  0.31398001     0.43800
C38         C  0.02356413  0.07293678  0.19360096    -0.05200
Co39       Co  0.46262056  0.03963271  0.24736001     0.73800
N40         N  0.42099704  0.47932584  0.19810111    -0.45400
C41         C  0.08244347  0.50011477  0.31220389     0.44100
N42         N  0.47738184  0.07763226  0.29771320    -0.45400
Co43       Co  0.45859627  0.46654930  0.24918859     0.73900
C44         C  0.47102375  0.42938527  0.30218614    -0.05700
C45         C  0.06916774  0.47258155  0.19505665    -0.05200
N46         N  0.01468880  0.05924250  0.27694327    -0.24800
N47         N  0.01718780  0.42440339  0.19820196    -0.45500
H48         H  0.07403599  0.45297183  0.30474001     0.08100
C49         C  0.42420547  0.02961824  0.29979495    -0.05700
Cl50       Cl  0.99710557  0.00105374  0.24775264    -0.48700
C51         C  0.41155640  0.00178247  0.18341300     0.43900
H52         H  0.04723922  0.07861940  0.30229895     0.08100
N53         N  0.42195597  0.48187447  0.30032920    -0.45400
C54         C  0.08015922  0.18423908  0.50113878     0.43700
N55         N  0.05572801  0.21968471  0.48786273     0.02600
C56         C  0.46955006  0.30298199  0.07145273    -0.05300
H57         H  0.44606008  0.19433726  0.07292218     0.08100
C58         C  0.42288076  0.20104733  0.46911354    -0.05600
Co59       Co  0.03093416  0.25073523  0.03682363     0.74200
N60         N  0.47863659  0.22055157  0.05474099    -0.24800
Co61       Co  0.45795778  0.25186085  0.03163213     0.74100
C62         C  0.41038284  0.18785457  0.49389561     0.43800
N63         N  0.48693758  0.22090726  0.43830041     0.02200
N64         N  0.43716935  0.22156096  0.00733827     0.02300
N65         N  0.01725491  0.30147131  0.07426891    -0.45600
H66         H  0.07128172  0.19283249  0.04801107     0.08100
N67         N  0.00643401  0.22017353  0.05673803     0.02600
N68         N  0.43846888  0.28324934  0.00760538     0.02400
C69         C  0.41405152  0.31872838  0.49424892     0.44000
N70         N  0.01473077  0.22064508  0.44037326    -0.24200
C71         C  0.07048723  0.30230005  0.02632102    -0.05200
N72         N  0.07169192  0.19884645  0.47825743    -0.45400
N73         N  0.42249235  0.30410976  0.01717611    -0.45600
C74         C  0.08269037  0.31574044  0.50153868     0.43700
N75         N  0.00735811  0.28171978  0.05718266     0.02600
N76         N  0.01568379  0.28219802  0.44082175    -0.24300
N77         N  0.05366132  0.21969960  0.01563352    -0.24800
N78         N  0.48790517  0.28268579  0.43873278     0.02200
H79         H  0.04849396  0.30853276  0.42325151     0.08100
H80         H  0.42289906  0.31003930  0.44738130     0.08200
N81         N  0.47955956  0.28205299  0.05525966    -0.24800
N82         N  0.43918886  0.22170609  0.47952046    -0.24400
N83         N  0.05679006  0.28139317  0.48813811     0.02600
C84         C  0.99292935  0.18526944  0.08179361     0.44000
C85         C  0.02489254  0.19943212  0.42464963    -0.05700
N86         N  0.44053795  0.28320716  0.47978539    -0.24400
H87         H  0.41969109  0.19638830  0.44702091     0.08200
N88         N  0.01588113  0.19945020  0.07295146    -0.45600
H89         H  0.04693469  0.19432310  0.42167580     0.08100
C90         C  0.50173213  0.31787893  0.41425104     0.43800
C91         C  0.06856637  0.19797469  0.02595092    -0.05200
Co92       Co  0.03622291  0.25096643  0.46389282     0.73800
N93         N  0.47721434  0.20077939  0.42151022    -0.45400
C94         C  0.49459351  0.31579509  0.08370894     0.44100
N95         N  0.07357026  0.30162158  0.47863539    -0.45400
Co96       Co  0.46324069  0.25209278  0.45857982     0.73900
C97         C  0.42561921  0.30492254  0.46944714    -0.05700
C98         C  0.46815652  0.19916582  0.07005108    -0.05200
N99         N  0.05469775  0.28126415  0.01591134    -0.24800
N100        N  0.41994851  0.20168477  0.01682394    -0.45500
H101        H  0.44754295  0.30800025  0.07478331     0.08100
C102        C  0.02635527  0.30370843  0.42586035    -0.05700
Cl103      Cl  0.99706969  0.25141111  0.49772687    -0.48700
C104        C  0.99999299  0.18630380  0.41245333     0.43900
H105        H  0.07344502  0.30714136  0.04840346     0.08100
N106        N  0.47863939  0.30370141  0.42278137    -0.45400
C107        C  0.31367593  0.49875712  0.08170253     0.43700
N108        N  0.27873966  0.01158355  0.05633231     0.02600
C109        C  0.19577881  0.42711015  0.47076431    -0.05300
H110        H  0.30511732  0.42731779  0.44660494     0.08100
C111        C  0.29730847  0.03018369  0.42436584    -0.05600
Co112      Co  0.24831133  0.46215182  0.03171631     0.74200
N113        N  0.27853949  0.44468076  0.47933391    -0.24800
Co114      Co  0.24678190  0.46712685  0.45874539     0.74100
C115        C  0.31114505  0.50558681  0.41230363     0.43800
N116        N  0.27638591  0.06096072  0.48713073     0.02200
N117        N  0.27675768  0.49176384  0.43795352     0.02300
N118        N  0.19769557  0.42435667  0.01846523    -0.45600
H119        H  0.30561078  0.45176569  0.07299205     0.08100
N120        N  0.27916276  0.44280956  0.00710452     0.02600
N121        N  0.21505187  0.49061464  0.43921374     0.02400
C122        C  0.17979507  0.00345367  0.41417317     0.44000
N123        N  0.27703441  0.05902855  0.01491830    -0.24200
C124        C  0.19674161  0.47188947  0.07138836    -0.05200
N125        N  0.29903303  0.02142814  0.07282592    -0.45400
N126        N  0.19457523  0.48074337  0.42296055    -0.45600
C127        C  0.18289315  0.99648387  0.08342265     0.43700
N128        N  0.21748322  0.44128818  0.00833309     0.02600
N129        N  0.21547907  0.05776335  0.01620461    -0.24300
N130        N  0.27901340  0.48381586  0.05439745    -0.24800
N131        N  0.21475769  0.05963750  0.48840747     0.02200
H132        H  0.18962650  0.07598147  0.04904072     0.08100
H133        H  0.18785490  0.05044026  0.42290430     0.08200
N134        N  0.21692086  0.44318597  0.48053326    -0.24800
N135        N  0.27624309  0.01953428  0.43997946    -0.24400
N136        N  0.21706178  0.01042500  0.05753736     0.02600
C137        C  0.31477647  0.41885632  0.49339862     0.44000
C138        C  0.29812860  0.07519939  0.02466459    -0.05700
N139        N  0.21469118  0.01840406  0.44118105    -0.24400
H140        H  0.30200973  0.05230809  0.42153518     0.08200
N141        N  0.30047425  0.42728598  0.01641494    -0.45600
H142        H  0.30347154  0.07840744  0.04659843     0.08100
C143        C  0.17987503  0.08454249  0.50225195     0.43800
C144        C  0.30047303  0.47377217  0.06986356    -0.05200
Co145      Co  0.24709944  0.03510620  0.03674279     0.73800
N146        N  0.29609643  0.07800218  0.47700611    -0.45400
C147        C  0.18308570  0.41497218  0.49596749     0.44100
N148        N  0.19660971  0.01962625  0.07423843    -0.45400
Co149      Co  0.24549584  0.04009936  0.46377693     0.73900
C150        C  0.19308024  0.02843995  0.42591679    -0.05700
C151        C  0.30031128  0.43003255  0.46872912    -0.05200
N152        N  0.21757811  0.48263224  0.05554546    -0.24800
N153        N  0.29729244  0.48249890  0.42139391    -0.45500
H154        H  0.19039490  0.42396291  0.44882853     0.08100
C155        C  0.19415018  0.07298692  0.02689463    -0.05700
Cl156      Cl  0.24687699  0.00112360  0.49774717    -0.48700
C157        C  0.31068179  0.08750683  0.49946420     0.43900
H158        H  0.19220840  0.44974077  0.07432776     0.08100
N159        N  0.19385979  0.07574190  0.47914919    -0.45400
C160        C  0.33780139  0.39918405  0.49378482    -0.17200
C161        C  0.35638269  0.38182074  0.49421145     0.06800
C162        C  0.37725716  0.36057325  0.49462720     0.08700
C163        C  0.39439342  0.34177464  0.49471164    -0.18100
C164        C  0.33274182  0.10835071  0.49809510    -0.17200
C165        C  0.35090696  0.12617737  0.49683511     0.06800
C166        C  0.37189961  0.14739290  0.49547002     0.08700
C167        C  0.38958718  0.16571477  0.49456308    -0.18100
C168        C  0.16069083  0.39457754  0.49734847    -0.17200
C169        C  0.14223270  0.37711023  0.49863807     0.06800
C170        C  0.12099925  0.35622440  0.50002293     0.08700
C171        C  0.10326804  0.33799737  0.50091266    -0.18100
C172        C  0.10011722  0.16148792  0.50067745    -0.17200
C173        C  0.11754359  0.14297660  0.50083563     0.06800
C174        C  0.13864422  0.12198090  0.50140290     0.08700
C175        C  0.15718778  0.10459055  0.50190951    -0.18100
C176        C  0.33403746  0.50526502  0.39241122    -0.17200
C177        C  0.35280861  0.50502680  0.37521942     0.06800
C178        C  0.37423233  0.50482722  0.35446604     0.08700
C179        C  0.39201988  0.50478206  0.33625510    -0.18100
C180        C  0.10220012  0.50136210  0.33510473    -0.17200
C181        C  0.11919275  0.50194522  0.35400385     0.06800
C182        C  0.13965439  0.00239664  0.37557443     0.08700
C183        C  0.15766776  0.00272506  0.39351420    -0.18100
C184        C  0.10112686  0.99738441  0.15846869    -0.17200
C185        C  0.11912219  0.99724046  0.14047713     0.06800
C186        C  0.14089283  0.99694806  0.12010821     0.08700
C187        C  0.15989368  0.99672700  0.10317992    -0.18100
C188        C  0.33555923  0.49947623  0.10262728    -0.17200
C189        C  0.35344804  0.49972627  0.12070107     0.06800
C190        C  0.37400617  0.99995863  0.14229572     0.08700
C191        C  0.39130408  0.00049066  0.16092907    -0.18100
C192        C  0.49983090  0.10760785  0.33397170    -0.17200
C193        C  0.49954793  0.12506106  0.35252740     0.06800
C194        C  0.99933882  0.14594463  0.37387610     0.08700
C195        C  0.99937965  0.16413299  0.39171137    -0.18100
C196        C  0.50137812  0.34110463  0.39483231    -0.17200
C197        C  0.50062156  0.35997494  0.37780860     0.06800
C198        C  0.49925321  0.38120322  0.35697633     0.08700
C199        C  0.49789114  0.39855603  0.33844185    -0.18100
C200        C  0.49552918  0.33744624  0.10485769    -0.17200
C201        C  0.49591958  0.35536615  0.12288319     0.06800
C202        C  0.99576857  0.37620090  0.14415677     0.08700
C203        C  0.99519896  0.39384371  0.16244949    -0.18100
C204        C  0.99360452  0.16229059  0.10154185    -0.17200
C205        C  0.99463087  0.14348175  0.11864790     0.06800
C206        C  0.99600971  0.12207203  0.13933741     0.08700
C207        C  0.99713129  0.10439971  0.15760972    -0.18100
C208        C  0.99831343  0.08422175  0.68016719     0.43700
N209        N  0.48593041  0.05935530  0.71566370     0.02600
C210        C  0.07075730  0.47487384  0.79931368    -0.04100
H211        H  0.07236458  0.45044501  0.69058891     0.08100
C212        C  0.46939910  0.42639270  0.69799779    -0.05600
Co213      Co  0.03565045  0.03552266  0.74633033     0.74200
N214        N  0.05398380  0.48321049  0.71639546    -0.24800
Co215      Co  0.03162933  0.46252235  0.74806578     0.74100
C216        C  0.99432181  0.41453820  0.68450941     0.43800
N217        N  0.43764860  0.48961247  0.71805251     0.02200
N218        N  0.00749348  0.44128392  0.71821449     0.02300
N219        N  0.07297371  0.02260918  0.79758754    -0.45600
H220        H  0.04548070  0.07620292  0.68832426     0.08100
N221        N  0.05561340  0.01101694  0.71565104     0.02600
N222        N  0.00843113  0.44284946  0.77976953     0.02400
C223        C  0.49633741  0.41834214  0.81555771     0.44000
N224        N  0.43923718  0.01740506  0.71743843    -0.24200
C225        C  0.02510499  0.07529427  0.79776336    -0.05200
N226        N  0.47579334  0.07526627  0.69501519    -0.45400
N227        N  0.01873498  0.42717358  0.80049678    -0.45600
C228        C  0.50032805  0.08717912  0.81147758     0.43700
N229        N  0.05658931  0.01239672  0.77738922     0.02600
N230        N  0.44000247  0.01892599  0.77886470    -0.24300
N231        N  0.01374685  0.05778527  0.71538270    -0.24800
N232        N  0.43841351  0.49113871  0.77968547     0.02200
H233        H  0.42085103  0.05175612  0.80401276     0.08100
H234        H  0.44909555  0.42627628  0.80769843     0.08200
N235        N  0.05500482  0.48458599  0.77791342    -0.24800
N236        N  0.47967062  0.44276499  0.71865618    -0.24400
N237        N  0.48685134  0.06085484  0.77742263     0.02600
C238        C  0.08053089  0.99721916  0.68070667     0.44000
C239        C  0.42325101  0.02703393  0.69616369    -0.05700
N240        N  0.48061096  0.44442074  0.78019925    -0.24400
H241        H  0.44733862  0.42284839  0.69344814     0.08200
N242        N  0.07162055  0.02031239  0.69469524    -0.45600
H243        H  0.41991770  0.04893371  0.69072531     0.08100
C244        C  0.41263202  0.50501589  0.81398652     0.43800
C245        C  0.02352586  0.07299537  0.69361876    -0.05200
Co246      Co  0.46260683  0.03961681  0.74734536     0.73800
N247        N  0.42100626  0.47933901  0.69809324    -0.45400
C248        C  0.08233125  0.50010362  0.81225950     0.44100
N249        N  0.47735726  0.07758454  0.79772432    -0.45400
Co250      Co  0.45859024  0.46655614  0.74917037     0.73900
C251        C  0.47099998  0.42940288  0.80217596    -0.05700
C252        C  0.06919422  0.47258258  0.69504745    -0.05200
N253        N  0.01467308  0.05922687  0.77694301    -0.24800
N254        N  0.01717017  0.42439719  0.69817435    -0.45500
H255        H  0.07393787  0.45295770  0.80479113     0.08100
C256        C  0.42426451  0.02960881  0.79980496    -0.05700
Cl257      Cl  0.99710744  0.00105323  0.74773063    -0.48700
C258        C  0.41146400  0.00176358  0.68345030     0.43900
H259        H  0.04721127  0.07857272  0.80233687     0.08100
N260        N  0.42196598  0.48189002  0.80032452    -0.45400
C261        C  0.08013084  0.18420203  0.00113442     0.43700
N262        N  0.05571454  0.21966440  0.98785818     0.02600
C263        C  0.46954707  0.30300260  0.57141077    -0.05300
H264        H  0.44603495  0.19433880  0.57286171     0.08100
C265        C  0.42290888  0.20102679  0.96913434    -0.05600
Co266      Co  0.03093453  0.25074569  0.53681806     0.74200
N267        N  0.47862279  0.22055874  0.55470683    -0.24800
Co268      Co  0.45795452  0.25187466  0.53160481     0.74100
C269        C  0.41043239  0.18781617  0.99391488     0.43800
N270        N  0.48691277  0.22090482  0.93829865     0.02200
N271        N  0.43714839  0.22158239  0.50731380     0.02300
N272        N  0.01725061  0.30148695  0.57424026    -0.45600
H273        H  0.07130267  0.19285996  0.54801445     0.08100
N274        N  0.00642007  0.22017873  0.55671415     0.02600
N275        N  0.43849316  0.28327045  0.50757744     0.02400
C276        C  0.41396229  0.31866297  0.99426687     0.44000
N277        N  0.01470595  0.22063215  0.94036416    -0.24200
C278        C  0.07050786  0.30231476  0.52632204    -0.05200
N279        N  0.07166647  0.19881480  0.97825338    -0.45400
N280        N  0.42255436  0.30415510  0.51715285    -0.45600
C281        C  0.08266504  0.31573239  0.00154214     0.43700
N282        N  0.00735504  0.28172797  0.55716320     0.02600
N283        N  0.01566514  0.28218379  0.94080641    -0.24300
N284        N  0.05367010  0.21971650  0.51563702    -0.24800
N285        N  0.48788515  0.28268310  0.93873711     0.02200
H286        H  0.04847218  0.30848024  0.92317850     0.08100
H287        H  0.42282461  0.30997649  0.94740155     0.08200
N288        N  0.47955747  0.28206314  0.55523274    -0.24800
N289        N  0.43920118  0.22169424  0.97954412    -0.24400
N290        N  0.05677195  0.28138281  0.98813287     0.02600
C291        C  0.99290151  0.18526162  0.58174504     0.44000
C292        C  0.02485380  0.19941806  0.92463110    -0.05700
N293        N  0.44051473  0.28318685  0.97981274    -0.24400
H294        H  0.41971868  0.19637145  0.94704093     0.08200
N295        N  0.01585818  0.19944734  0.57292237    -0.45600
H296        H  0.04689183  0.19430057  0.92164912     0.08100
C297        C  0.50171053  0.31784437  0.91420467     0.43800
C298        C  0.06858502  0.19800013  0.52595606    -0.05200
Co299      Co  0.03620661  0.25095188  0.96388541     0.73800
N300        N  0.47717573  0.20078332  0.92150770    -0.45400
C301        C  0.49458914  0.31581925  0.58366443     0.44100
N302        N  0.07354966  0.30161563  0.97863440    -0.45400
Co303      Co  0.46322833  0.25208748  0.95859700     0.73900
C304        C  0.42555865  0.30487376  0.96947039    -0.05700
C305        C  0.46813493  0.19916633  0.57000070    -0.05200
N306        N  0.05471359  0.28127805  0.51591613    -0.24800
N307        N  0.41990681  0.20172408  0.51680136    -0.45500
H308        H  0.44753931  0.30802845  0.57473063     0.08100
C309        C  0.02633637  0.30367296  0.92581160    -0.05700
Cl310      Cl  0.99706350  0.25140269  0.99773745    -0.48700
C311        C  0.99994488  0.18630064  0.91243844     0.43900
H312        H  0.07346278  0.30716301  0.54840168     0.08100
N313        N  0.47861738  0.30368798  0.92277129    -0.45400
C314        C  0.31368625  0.49871862  0.58171323     0.43700
N315        N  0.27869764  0.01159282  0.55632990     0.02600
C316        C  0.19579562  0.42705115  0.97078035    -0.05300
H317        H  0.30508974  0.42737019  0.94656925     0.08100
C318        C  0.29726744  0.03022087  0.92428582    -0.05600
Co319      Co  0.24832103  0.46214793  0.53171445     0.74200
N320        N  0.27851741  0.44470232  0.97931827    -0.24800
Co321      Co  0.24675147  0.46713578  0.95873880     0.74100
C322        C  0.31115264  0.50558540  0.91232390     0.43800
N323        N  0.27642626  0.06095364  0.98712456     0.02200
N324        N  0.27673221  0.49176871  0.93794141     0.02300
N325        N  0.19765074  0.42441685  0.51844961    -0.45600
H326        H  0.30558984  0.45173399  0.57300712     0.08100
N327        N  0.27916913  0.44279148  0.50712072     0.02600
N328        N  0.21502346  0.49062911  0.93919996     0.02400
C329        C  0.17981584  0.00342441  0.91418115     0.44000
N330        N  0.27698453  0.05904604  0.51492490    -0.24200
C331        C  0.19670851  0.47190985  0.57132189    -0.05200
N332        N  0.29900494  0.02144003  0.57280459    -0.45400
N333        N  0.19457272  0.48076863  0.92290706    -0.45600
C334        C  0.18288825  0.99646293  0.58344774     0.43700
N335        N  0.21748452  0.44129967  0.50832517     0.02600
N336        N  0.21543017  0.05775486  0.51619678    -0.24300
N337        N  0.27903021  0.48380236  0.55439321    -0.24800
N338        N  0.21479374  0.05964132  0.98841562     0.02200
H339        H  0.18956605  0.07597217  0.54902343     0.08100
H340        H  0.18783790  0.05041567  0.92293011     0.08200
N341        N  0.21690427  0.44317713  0.98054031    -0.24800
N342        N  0.27625378  0.01954775  0.93995038    -0.24400
N343        N  0.21702621  0.01041673  0.55753559     0.02600
C344        C  0.31478277  0.41890196  0.99335361     0.44000
C345        C  0.29806972  0.07523020  0.52467043    -0.05700
N346        N  0.21471285  0.01839707  0.94118200    -0.24400
H347        H  0.30192941  0.05235196  0.92143450     0.08200
N348        N  0.30046414  0.42725742  0.51644882    -0.45600
H349        H  0.30340696  0.07844679  0.54660484     0.08100
C350        C  0.17991539  0.08455092  0.00227222     0.43800
C351        C  0.30047440  0.47374357  0.56986894    -0.05200
Co352      Co  0.24705336  0.03510943  0.53674357     0.73800
N353        N  0.29613941  0.07799339  0.97700146    -0.45400
C354        C  0.18314563  0.41487716  0.99598953     0.44100
N355        N  0.19658648  0.01961089  0.57425401    -0.45400
Co356      Co  0.24552180  0.04010004  0.96377308     0.73900
C357        C  0.19308519  0.02841881  0.92593076    -0.05700
C358        C  0.30029385  0.43007360  0.96869714    -0.05200
N359        N  0.21758820  0.48263888  0.55552704    -0.24800
N360        N  0.29727908  0.48250134  0.92139623    -0.45500
H361        H  0.19042032  0.42387853  0.94884475     0.08100
C362        C  0.19409640  0.07297547  0.52687944    -0.05700
Cl363      Cl  0.24691806  0.00112296  0.99774365    -0.48700
C364        C  0.31073449  0.08748245  0.99946041     0.43900
H365        H  0.19213995  0.44976235  0.57423355     0.08100
N366        N  0.19389001  0.07574338  0.97916494    -0.45400
C367        C  0.33781183  0.39922908  0.99371693    -0.17200
C368        C  0.35638132  0.38185003  0.99414488     0.06800
C369        C  0.37722268  0.36056547  0.99459556     0.08700
C370        C  0.39432564  0.34173340  0.99471736    -0.18100
C371        C  0.33278864  0.10832956  0.99809863    -0.17200
C372        C  0.35095136  0.12615665  0.99684462     0.06800
C373        C  0.37194586  0.14736598  0.99548053     0.08700
C374        C  0.38963722  0.16568125  0.99457611    -0.18100
C375        C  0.16077622  0.39445687  0.99738687    -0.17200
C376        C  0.14231493  0.37699451  0.99868698     0.06800
C377        C  0.12105092  0.35614102  0.00006402     0.08700
C378        C  0.10328286  0.33795018  0.00093303    -0.18100
C379        C  0.10008590  0.16144121  0.00067546    -0.17200
C380        C  0.11751716  0.14293031  0.00084321     0.06800
C381        C  0.13863628  0.12194666  0.00142199     0.08700
C382        C  0.15720154  0.10457546  0.00193336    -0.18100
C383        C  0.33405985  0.50526207  0.89244029    -0.17200
C384        C  0.35283777  0.50502918  0.87525096     0.06800
C385        C  0.37426563  0.50483838  0.85449417     0.08700
C386        C  0.39205088  0.50479859  0.83627643    -0.18100
C387        C  0.10213548  0.50135894  0.83511427    -0.17200
C388        C  0.11918480  0.50196755  0.85395907     0.06800
C389        C  0.13964721  0.00234223  0.87560618     0.08700
C390        C  0.15766711  0.00267906  0.89354182    -0.18100
C391        C  0.10110918  0.99740762  0.65845392    -0.17200
C392        C  0.11911093  0.99724651  0.64047390     0.06800
C393        C  0.14089291  0.99693184  0.62012568     0.08700
C394        C  0.15989782  0.99670060  0.60320719    -0.18100
C395        C  0.33553490  0.49941647  0.60266952    -0.17200
C396        C  0.35340873  0.49966392  0.62075485     0.06800
C397        C  0.37396336  0.99994175  0.64228265     0.08700
C398        C  0.39122900  0.00046793  0.66094759    -0.18100
C399        C  0.49978925  0.10754338  0.83400822    -0.17200
C400        C  0.49949611  0.12500588  0.85255668     0.06800
C401        C  0.99927495  0.14590946  0.87388887     0.08700
C402        C  0.99931483  0.16411487  0.89170894    -0.18100
C403        C  0.50134875  0.34108528  0.89479919    -0.17200
C404        C  0.50058552  0.35997608  0.87779596     0.06800
C405        C  0.49921488  0.38122605  0.85698257     0.08700
C406        C  0.49785670  0.39858386  0.83845079    -0.18100
C407        C  0.49552173  0.33746227  0.60481824    -0.17200
C408        C  0.49590917  0.35537011  0.62285410     0.06800
C409        C  0.99575115  0.37619023  0.64413970     0.08700
C410        C  0.99517598  0.39382706  0.66243695    -0.18100
C411        C  0.99356092  0.16231381  0.60152913    -0.17200
C412        C  0.99457326  0.14353442  0.61866815     0.06800
C413        C  0.99594373  0.12214924  0.63938372     0.08700
C414        C  0.99707009  0.10447908  0.65765806    -0.18100
C415        C  0.99832016  0.58413274  0.18012303     0.43700
N416        N  0.48593876  0.55933353  0.21566718     0.02600
C417        C  0.07073054  0.97488541  0.29934364    -0.04100
H418        H  0.07236933  0.95043149  0.19062288     0.08100
C419        C  0.46935547  0.92638334  0.19803903    -0.05600
Co420      Co  0.03566032  0.53552164  0.24634123     0.74200
N421        N  0.05397366  0.98319958  0.21641105    -0.24800
Co422      Co  0.03161769  0.96251381  0.24807912     0.74100
C423        C  0.99426345  0.91451780  0.18453742     0.43800
N424        N  0.43765258  0.98961149  0.21807304     0.02200
N425        N  0.00746988  0.94126647  0.21823054     0.02300
N426        N  0.07303309  0.52261780  0.29756870    -0.45600
H427        H  0.04548757  0.57611976  0.18828458     0.08100
N428        N  0.05561666  0.51101038  0.21566363     0.02600
N429        N  0.00843101  0.94283331  0.27978034     0.02400
C430        C  0.49636169  0.91828443  0.31554532     0.44000
N431        N  0.43924641  0.51740924  0.21744598    -0.24200
C432        C  0.02509927  0.57531376  0.29776212    -0.05200
N433        N  0.47580171  0.57521001  0.19499282    -0.45400
N434        N  0.01874810  0.92713452  0.30048255    -0.45600
C435        C  0.50031556  0.58719714  0.31146775     0.43700
N436        N  0.05661494  0.51240544  0.27739745     0.02600
N437        N  0.43998248  0.51893098  0.27887041    -0.24300
N438        N  0.01375439  0.55775980  0.21538456    -0.24800
N439        N  0.43841316  0.99113869  0.27970617     0.02200
H440        H  0.42078150  0.55175236  0.30399193     0.08100
H441        H  0.44911286  0.92622120  0.30772043     0.08200
N442        N  0.05498840  0.98458910  0.27793133    -0.24800
N443        N  0.47964764  0.94275431  0.21868701    -0.24400
N444        N  0.48685186  0.56085180  0.27742714     0.02600
C445        C  0.08048448  0.49720428  0.18068698     0.44000
C446        C  0.42327597  0.52704137  0.19616202    -0.05700
N447        N  0.48061070  0.94440500  0.28022515    -0.24400
H448        H  0.44729031  0.92284902  0.19350350     0.08200
N449        N  0.07159969  0.52030033  0.19468718    -0.45600
H450        H  0.41995205  0.54894341  0.19072018     0.08100
C451        C  0.41259082  0.00500837  0.31397645     0.43800
C452        C  0.02353195  0.57292892  0.19359221    -0.05200
Co453      Co  0.46260877  0.53961514  0.24735433     0.73800
N454        N  0.42103552  0.97933783  0.19809224    -0.45400
C455        C  0.08228669  0.00012084  0.31229749     0.44100
N456        N  0.47735012  0.57758811  0.29771846    -0.45400
Co457      Co  0.45858514  0.96655256  0.24919820     0.73900
C458        C  0.47101342  0.92936141  0.30219225    -0.05700
C459        C  0.06919707  0.97256668  0.19507337    -0.05200
N460        N  0.01467483  0.55923195  0.27694876    -0.24800
N461        N  0.01712666  0.92437162  0.19818608    -0.45500
H462        H  0.07391194  0.95297095  0.30482824     0.08100
C463        C  0.42421177  0.52960850  0.29979090    -0.05700
Cl464      Cl  0.99711261  0.50105663  0.24775371    -0.48700
C465        C  0.41149232  0.50177450  0.18344108     0.43900
H466        H  0.04720254  0.57860388  0.30233415     0.08100
N467        N  0.42194622  0.98188567  0.30032682    -0.45400
C468        C  0.08023650  0.68427377  0.50112102     0.43700
N469        N  0.05573455  0.71967302  0.48784692     0.02600
C470        C  0.46951527  0.80296184  0.07142935    -0.05300
H471        H  0.44604346  0.69433043  0.07291304     0.08100
C472        C  0.42287773  0.70104201  0.46913724    -0.05600
Co473      Co  0.03092814  0.75073056  0.03683049     0.74200
N474        N  0.47862227  0.72053813  0.05472656    -0.24800
Co475      Co  0.45795107  0.75185226  0.03161542     0.74100
C476        C  0.41039472  0.68784452  0.49392429     0.43800
N477        N  0.48690897  0.72091248  0.43829723     0.02200
N478        N  0.43714181  0.72156728  0.00732857     0.02300
N479        N  0.01721961  0.80147293  0.07426917    -0.45600
H480        H  0.07129222  0.69283289  0.04801520     0.08100
N481        N  0.00641960  0.72016626  0.05673594     0.02600
N482        N  0.43849703  0.78325104  0.00758208     0.02400
C483        C  0.41400177  0.81869489  0.49425986     0.44000
N484        N  0.01470282  0.72063466  0.44036151    -0.24200
C485        C  0.07050884  0.80229289  0.02632796    -0.05200
N486        N  0.07173255  0.69886073  0.47823979    -0.45400
N487        N  0.42256761  0.80414556  0.01715148    -0.45600
C488        C  0.08259241  0.81578977  0.50152854     0.43700
N489        N  0.00734056  0.78171304  0.05718184     0.02600
N490        N  0.01567403  0.78218518  0.44082765    -0.24300
N491        N  0.05365784  0.71969553  0.01564322    -0.24800
N492        N  0.48789534  0.78269371  0.43875189     0.02200
H493        H  0.04849901  0.80850137  0.42326174     0.08100
H494        H  0.42285846  0.81000435  0.44739589     0.08200
N495        N  0.47954361  0.78203590  0.05524668    -0.24800
N496        N  0.43918612  0.72170207  0.47953958    -0.24400
N497        N  0.05676930  0.78138517  0.48812625     0.02600
C498        C  0.99291060  0.68527341  0.08180527     0.44000
C499        C  0.02484608  0.69942726  0.42461669    -0.05700
N500        N  0.44052141  0.78319698  0.47980547    -0.24400
H501        H  0.41967784  0.69638625  0.44704557     0.08200
N502        N  0.01586326  0.69945479  0.07296633    -0.45600
H503        H  0.04688261  0.69431093  0.42162694     0.08100
C504        C  0.50174376  0.81789093  0.41428532     0.43800
C505        C  0.06856930  0.69797400  0.02595766    -0.05200
Co506      Co  0.03621043  0.75095047  0.46388382     0.73800
N507        N  0.47716734  0.70080266  0.42149629    -0.45400
C508        C  0.49454465  0.81578783  0.08369344     0.44100
N509        N  0.07351011  0.80164664  0.47862416    -0.45400
Co510      Co  0.46322683  0.75209421  0.45859402     0.73900
C511        C  0.42558411  0.80489632  0.46946278    -0.05700
C512        C  0.46814025  0.69915705  0.07004201    -0.05200
N513        N  0.05470789  0.78125978  0.01592329    -0.24800
N514        N  0.41989051  0.70172197  0.01682471    -0.45500
H515        H  0.44750470  0.80797231  0.07474439     0.08100
C516        C  0.02635817  0.80369338  0.42587427    -0.05700
Cl517      Cl  0.99706433  0.75139746  0.49772967    -0.48700
C518        C  0.99993292  0.68632201  0.41241830     0.43900
H519        H  0.07346550  0.80713978  0.04840650     0.08100
N520        N  0.47864088  0.80372686  0.42281569    -0.45400
C521        C  0.31368915  0.99872713  0.08173777     0.43700
N522        N  0.27868872  0.51159625  0.05633787     0.02600
C523        C  0.19579475  0.92703827  0.47077790    -0.05300
H524        H  0.30508803  0.92734813  0.44657309     0.08100
C525        C  0.29727943  0.53020095  0.42430298    -0.05600
Co526      Co  0.24833956  0.96214337  0.03171496     0.74200
N527        N  0.27851824  0.94468322  0.47932289    -0.24800
Co528      Co  0.24675317  0.96712349  0.45874712     0.74100
C529        C  0.31118469  0.00556433  0.41238533     0.43800
N530        N  0.27641030  0.56095925  0.48713331     0.02200
N531        N  0.27673611  0.99175775  0.43796627     0.02300
N532        N  0.19768819  0.92438568  0.01844631    -0.45600
H533        H  0.30559664  0.95173856  0.07304078     0.08100
N534        N  0.27918641  0.94277985  0.00711348     0.02600
N535        N  0.21502297  0.99061880  0.43920910     0.02400
C536        C  0.17976326  0.50342302  0.41425386     0.44000
N537        N  0.27698631  0.55901855  0.01492954    -0.24200
C538        C  0.19670888  0.97191438  0.07130624    -0.05200
N539        N  0.29899166  0.52144982  0.07281456    -0.45400
N540        N  0.19457381  0.98076217  0.42291042    -0.45600
C541        C  0.18294311  0.49645042  0.08353711     0.43700
N542        N  0.21750772  0.94128669  0.00832298     0.02600
N543        N  0.21542535  0.55775260  0.01618314    -0.24300
N544        N  0.27904496  0.98380130  0.05440331    -0.24800
N545        N  0.21477692  0.55962126  0.48840670     0.02200
H546        H  0.18954668  0.57597142  0.04899696     0.08100
H547        H  0.18780885  0.55041680  0.42296762     0.08200
N548        N  0.21690538  0.94316149  0.48053997    -0.24800
N549        N  0.27625242  0.51954140  0.43995916    -0.24400
N550        N  0.21702037  0.51041647  0.05755165     0.02600
C551        C  0.31478272  0.91888307  0.49335732     0.44000
C552        C  0.29809977  0.57515505  0.02468968    -0.05700
N553        N  0.21470873  0.51839913  0.44118552    -0.24400
H554        H  0.30195548  0.55232915  0.42145107     0.08200
N555        N  0.30046051  0.92720916  0.01643011    -0.45600
H556        H  0.30343980  0.57834575  0.04662626     0.08100
C557        C  0.17983889  0.58445453  0.50224173     0.43800
C558        C  0.30048182  0.97374747  0.06989429    -0.05200
Co559      Co  0.24704242  0.53510519  0.03674382     0.73800
N560        N  0.29611814  0.57801278  0.47702275    -0.45400
C561        C  0.18314419  0.91486243  0.49598622     0.44100
N562        N  0.19660760  0.51960466  0.07430703    -0.45400
Co563      Co  0.24551660  0.54009912  0.46377260     0.73900
C564        C  0.19306226  0.52842008  0.42596168    -0.05700
C565        C  0.30029259  0.93005204  0.46870090    -0.05200
N566        N  0.21759964  0.98264127  0.05552286    -0.24800
N567        N  0.29729619  0.98248495  0.42144200    -0.45500
H568        H  0.19041723  0.92387130  0.44884461     0.08100
C569        C  0.19408902  0.57297696  0.02685533    -0.05700
Cl570      Cl  0.24690359  0.50112388  0.49774571    -0.48700
C571        C  0.31069629  0.58750725  0.49949145     0.43900
H572        H  0.19213744  0.94976779  0.07421489     0.08100
N573        N  0.19385263  0.57568795  0.47914449    -0.45400
C574        C  0.33782074  0.89922254  0.49372048    -0.17200
C575        C  0.35640154  0.88185684  0.49414556     0.06800
C576        C  0.37725745  0.86058884  0.49459182     0.08700
C577        C  0.39436786  0.84176505  0.49470975    -0.18100
C578        C  0.33273014  0.60837670  0.49814775    -0.17200
C579        C  0.35088107  0.62621622  0.49689977     0.06800
C580        C  0.37187405  0.64742659  0.49552374     0.08700
C581        C  0.38957655  0.66573060  0.49460031    -0.18100
C582        C  0.16074457  0.89447318  0.49738394    -0.17200
C583        C  0.14225448  0.87704012  0.49868139     0.06800
C584        C  0.12096253  0.85621365  0.50005377     0.08700
C585        C  0.10318921  0.83802731  0.50091901    -0.18100
C586        C  0.10018729  0.66151284  0.50065123    -0.17200
C587        C  0.11758395  0.64297171  0.50080274     0.06800
C588        C  0.13863973  0.62192873  0.50137390     0.08700
C589        C  0.15715661  0.60450920  0.50189211    -0.18100
C590        C  0.33406360  0.00523530  0.39247250    -0.17200
C591        C  0.35281068  0.00499674  0.37525131     0.06800
C592        C  0.37421055  0.00480947  0.35446798     0.08700
C593        C  0.39199187  0.00478060  0.33624773    -0.18100
C594        C  0.10208893  0.00138573  0.33515512    -0.17200
C595        C  0.11914738  0.00199530  0.35399292     0.06800
C596        C  0.13962973  0.50233507  0.37565246     0.08700
C597        C  0.15761957  0.50267488  0.39361516    -0.18100
C598        C  0.10107076  0.49738347  0.15844266    -0.17200
C599        C  0.11909753  0.49721754  0.14048831     0.06800
C600        C  0.14091762  0.49690529  0.12018141     0.08700
C601        C  0.15994646  0.49668118  0.10328981    -0.18100
C602        C  0.33555417  0.99943853  0.10267840    -0.17200
C603        C  0.35344347  0.99969239  0.12074935     0.06800
C604        C  0.37398894  0.49997454  0.14227252     0.08700
C605        C  0.39126049  0.50048828  0.16093351    -0.18100
C606        C  0.49976387  0.60758355  0.33397577    -0.17200
C607        C  0.49946114  0.62505833  0.35251108     0.06800
C608        C  0.99924298  0.64596239  0.37384034     0.08700
C609        C  0.99929440  0.66415681  0.39166996    -0.18100
C610        C  0.50141104  0.84111416  0.39486342    -0.17200
C611        C  0.50066974  0.85997793  0.37783179     0.06800
C612        C  0.49929338  0.88119339  0.35698672     0.08700
C613        C  0.49790790  0.89853149  0.33843979    -0.18100
C614        C  0.49545090  0.83745167  0.10482891    -0.17200
C615        C  0.49581114  0.85537412  0.12285201     0.06800
C616        C  0.99564426  0.87619715  0.14413678     0.08700
C617        C  0.99508807  0.89382382  0.16244565    -0.18100
C618        C  0.99357974  0.66232375  0.10158754    -0.17200
C619        C  0.99459585  0.64352562  0.11870575     0.06800
C620        C  0.99596275  0.62210262  0.13938162     0.08700
C621        C  0.99708211  0.60440306  0.15762711    -0.18100
C622        C  0.99835605  0.58419716  0.68015516     0.43700
N623        N  0.48596317  0.55935480  0.71566448     0.02600
C624        C  0.07079047  0.97488127  0.79928606    -0.04100
H625        H  0.07238000  0.95045485  0.69061006     0.08100
C626        C  0.46940693  0.92636509  0.69800908    -0.05600
Co627      Co  0.03566745  0.53551054  0.74633137     0.74200
N628        N  0.05397731  0.98322284  0.71639441    -0.24800
Co629      Co  0.03163585  0.96252874  0.74806059     0.74100
C630        C  0.99433150  0.91450590  0.68452693     0.43800
N631        N  0.43763291  0.98959150  0.71805771     0.02200
N632        N  0.00750004  0.94127611  0.71821509     0.02300
N633        N  0.07295925  0.52260051  0.79759483    -0.45600
H634        H  0.04552151  0.57616185  0.68831172     0.08100
N635        N  0.05562665  0.51100400  0.71565530     0.02600
N636        N  0.00845448  0.94284645  0.77976385     0.02400
C637        C  0.49638602  0.91830708  0.81553754     0.44000
N638        N  0.43926135  0.51742522  0.71742969    -0.24200
C639        C  0.02513584  0.57527338  0.79776720    -0.05200
N640        N  0.47583312  0.57526086  0.69500967    -0.45400
N641        N  0.01877294  0.92716003  0.80047541    -0.45600
C642        C  0.50036253  0.58715551  0.81148914     0.43700
N643        N  0.05658519  0.51238412  0.77739244     0.02600
N644        N  0.43999359  0.51894289  0.77886022    -0.24300
N645        N  0.01377857  0.55777268  0.71538161    -0.24800
N646        N  0.43842494  0.99112178  0.77969412     0.02200
H647        H  0.42082070  0.55176643  0.80400128     0.08100
H648        H  0.44913634  0.92622296  0.80769748     0.08200
N649        N  0.05501802  0.98459736  0.77790171    -0.24800
N650        N  0.47967647  0.94275020  0.71865851    -0.24400
N651        N  0.48687623  0.56084818  0.77742633     0.02600
C652        C  0.08052673  0.49721123  0.68069543     0.44000
C653        C  0.42329162  0.52705416  0.69614366    -0.05700
N654        N  0.48063356  0.94440577  0.78020133    -0.24400
H655        H  0.44734526  0.92281179  0.69346439     0.08200
N656        N  0.07162685  0.52030118  0.69469498    -0.45600
H657        H  0.41996633  0.54895792  0.69069850     0.08100
C658        C  0.41267083  0.00500801  0.81400896     0.43800
C659        C  0.02356399  0.57296678  0.69360983    -0.05200
Co660      Co  0.46262509  0.53962696  0.74734472     0.73800
N661        N  0.42098331  0.97931731  0.69810249    -0.45400
C662        C  0.08236596  0.00010806  0.81223700     0.44100
N663        N  0.47738816  0.57757176  0.79773496    -0.45400
Co664      Co  0.45859524  0.96653939  0.74917448     0.73900
C665        C  0.47103781  0.92936818  0.80217238    -0.05700
C666        C  0.06919911  0.97259203  0.69505768    -0.05200
N667        N  0.01469750  0.55921629  0.77694264    -0.24800
N668        N  0.01717869  0.92437938  0.69818384    -0.45500
H669        H  0.07398121  0.95296392  0.80475132     0.08100
C670        C  0.42423713  0.52962178  0.79979219    -0.05700
Cl671      Cl  0.99711340  0.50105517  0.74773192    -0.48700
C672        C  0.41150570  0.50178380  0.68342940     0.43900
H673        H  0.04724338  0.57854470  0.80234007     0.08100
N674        N  0.42198998  0.98187695  0.80034459    -0.45400
C675        C  0.08013081  0.68420794  0.00113615     0.43700
N676        N  0.05570748  0.71966049  0.98786776     0.02600
C677        C  0.46956519  0.80301368  0.57139520    -0.05300
H678        H  0.44605257  0.69435908  0.57291923     0.08100
C679        C  0.42284737  0.70104033  0.96913555    -0.05600
Co680      Co  0.03093808  0.75073099  0.53680924     0.74200
N681        N  0.47863559  0.72055311  0.55472172    -0.24800
Co682      Co  0.45795793  0.75186681  0.53161978     0.74100
C683        C  0.41034635  0.68785936  0.99392488     0.43800
N684        N  0.48692439  0.72088965  0.93829659     0.02200
N685        N  0.43715780  0.72157341  0.50733405     0.02300
N686        N  0.01726811  0.80148675  0.57421584    -0.45600
H687        H  0.07138110  0.69289065  0.54799829     0.08100
N688        N  0.00643393  0.72016584  0.55671331     0.02600
N689        N  0.43847587  0.78325995  0.50759715     0.02400
C690        C  0.41408433  0.81872461  0.99424327     0.44000
N691        N  0.01471804  0.72062745  0.94036440    -0.24200
C692        C  0.07043683  0.80234020  0.52630904    -0.05200
N693        N  0.07166184  0.69881770  0.97825826    -0.45400
N694        N  0.42251807  0.80413375  0.51716878    -0.45600
C695        C  0.08270041  0.81571216  0.00154434     0.43700
N696        N  0.00736351  0.78171518  0.55715883     0.02600
N697        N  0.01568364  0.78218025  0.94082487    -0.24300
N698        N  0.05368547  0.71970700  0.51562228    -0.24800
N699        N  0.48790567  0.78266987  0.93873242     0.02200
H700        H  0.04849927  0.80850776  0.92325569     0.08100
H701        H  0.42293993  0.81002971  0.94737945     0.08200
N702        N  0.47956631  0.78205747  0.55523341    -0.24800
N703        N  0.43917507  0.72168955  0.97953425    -0.24400
N704        N  0.05678736  0.78137027  0.98814525     0.02600
C705        C  0.99292047  0.68527374  0.58177913     0.44000
C706        C  0.02487640  0.69943125  0.92461474    -0.05700
N707        N  0.44054880  0.78318793  0.97979074    -0.24400
H708        H  0.41964632  0.69638179  0.94704716     0.08200
N709        N  0.01587629  0.69944493  0.57293184    -0.45600
H710        H  0.04691852  0.69432879  0.92162652     0.08100
C711        C  0.50174144  0.81786281  0.91424842     0.43800
C712        C  0.06864149  0.69801708  0.52594018    -0.05200
Co713      Co  0.03621421  0.75094491  0.96389657     0.73800
N714        N  0.47719746  0.70077918  0.92148692    -0.45400
C715        C  0.49461352  0.81583537  0.58363098     0.44100
N716        N  0.07357668  0.80159192  0.97864253    -0.45400
Co717      Co  0.46323669  0.75207382  0.95858490     0.73900
C718        C  0.42564891  0.80491154  0.96944679    -0.05700
C719        C  0.46815069  0.69917517  0.57003806    -0.05200
N720        N  0.05468966  0.78127087  0.51590325    -0.24800
N721        N  0.41992461  0.70171204  0.51682723    -0.45500
H722        H  0.44756009  0.80805164  0.57471144     0.08100
C723        C  0.02636033  0.80368832  0.92586286    -0.05700
Cl724      Cl  0.99706442  0.75138961  0.99773487    -0.48700
C725        C  0.99997450  0.68631553  0.91240711     0.43900
H726        H  0.07337162  0.80720224  0.54838987     0.08100
N727        N  0.47864556  0.80368672  0.92277726    -0.45400
C728        C  0.31368447  0.99874169  0.58168614     0.43700
N729        N  0.27872560  0.51158390  0.55632807     0.02600
C730        C  0.19580880  0.92708594  0.97076219    -0.05300
H731        H  0.30508206  0.92726767  0.94658132     0.08100
C732        C  0.29728435  0.53020013  0.92432144    -0.05600
Co733      Co  0.24831297  0.96214316  0.53171316     0.74200
N734        N  0.27855080  0.94467373  0.97932593    -0.24800
Co735      Co  0.24679718  0.96712598  0.95873811     0.74100
C736        C  0.31113958  0.00561799  0.91227378     0.43800
N737        N  0.27640305  0.56093873  0.98713566     0.02200
N738        N  0.27677109  0.99177065  0.93794114     0.02300
N739        N  0.19769459  0.92434076  0.51846275    -0.45600
H740        H  0.30560745  0.95175290  0.57297479     0.08100
N741        N  0.27916573  0.94279305  0.50710896     0.02600
N742        N  0.21506702  0.99061288  0.93919671     0.02400
C743        C  0.17979056  0.50345737  0.91417199     0.44000
N744        N  0.27700532  0.55903378  0.51492700    -0.24200
C745        C  0.19669826  0.97189779  0.57132008    -0.05200
N746        N  0.29902538  0.52142341  0.57281673    -0.45400
N747        N  0.19462007  0.98074417  0.92290269    -0.45600
C748        C  0.18290625  0.49647840  0.58345166     0.43700
N749        N  0.21748527  0.94127048  0.50833185     0.02600
N750        N  0.21544424  0.55773367  0.51619541    -0.24300
N751        N  0.27901403  0.98381167  0.55439006    -0.24800
N752        N  0.21477012  0.55964461  0.98839373     0.02200
H753        H  0.18952467  0.57588546  0.54901477     0.08100
H754        H  0.18784794  0.55044666  0.92289422     0.08200
N755        N  0.21694054  0.94317658  0.98053060    -0.24800
N756        N  0.27623794  0.51954481  0.93995623    -0.24400
N757        N  0.21705322  0.51042134  0.55754575     0.02600
C758        C  0.31474977  0.91878948  0.99337100     0.44000
C759        C  0.29808471  0.57521445  0.52468642    -0.05700
N760        N  0.21469217  0.51841492  0.94116806    -0.24400
H761        H  0.30197657  0.55232871  0.92148552     0.08200
N762        N  0.30047764  0.92727009  0.51641960    -0.45600
H763        H  0.30341293  0.57842426  0.54662501     0.08100
C764        C  0.17988987  0.58455826  0.00222087     0.43800
C765        C  0.30047378  0.97376173  0.56984974    -0.05200
Co766      Co  0.24707768  0.53510234  0.53674406     0.73800
N767        N  0.29615466  0.57794172  0.97702559    -0.45400
C768        C  0.18312739  0.91493162  0.99596473     0.44100
N769        N  0.19661567  0.51962184  0.57426331    -0.45400
Co770      Co  0.24550188  0.54010376  0.96376727     0.73900
C771        C  0.19307727  0.52844747  0.92590705    -0.05700
C772        C  0.30029559  0.92999485  0.96870994    -0.05200
N773        N  0.21757237  0.98263289  0.55552164    -0.24800
N774        N  0.29730307  0.98251972  0.92136807    -0.45500
H775        H  0.19042793  0.92393475  0.94882591     0.08100
C776        C  0.19407607  0.57291088  0.52687260    -0.05700
Cl777      Cl  0.24686973  0.50112819  0.99774376    -0.48700
C778        C  0.31075074  0.58740853  0.99949446     0.43900
H779        H  0.19214114  0.94975042  0.57423774     0.08100
N780        N  0.19388545  0.57575943  0.97912566    -0.45400
C781        C  0.33777346  0.89911571  0.99374269    -0.17200
C782        C  0.35636968  0.88176877  0.99416350     0.06800
C783        C  0.37726991  0.86054822  0.99458931     0.08700
C784        C  0.39442177  0.84176507  0.99469130    -0.18100
C785        C  0.33281843  0.60824534  0.99815162    -0.17200
C786        C  0.35096843  0.62608836  0.99690741     0.06800
C787        C  0.37192412  0.64734020  0.99553713     0.08700
C788        C  0.38957825  0.66569363  0.99461158    -0.18100
C789        C  0.16073795  0.89452668  0.99734678    -0.17200
C790        C  0.14227882  0.87705787  0.99863823     0.06800
C791        C  0.12103697  0.85617659  0.00002636     0.08700
C792        C  0.10329455  0.83795796  0.00091772    -0.18100
C793        C  0.10010845  0.66147606  0.00066541    -0.17200
C794        C  0.11755336  0.64298325  0.00080512     0.06800
C795        C  0.13866818  0.62200337  0.00135818     0.08700
C796        C  0.15721253  0.60461514  0.00186661    -0.18100
C797        C  0.33403655  0.00531771  0.89238289    -0.17200
C798        C  0.35281926  0.00509222  0.87520187     0.06800
C799        C  0.37426457  0.00488058  0.85446884     0.08700
C800        C  0.39206995  0.00480940  0.83627446    -0.18100
C801        C  0.10213174  0.00135816  0.83513246    -0.17200
C802        C  0.11915721  0.00194903  0.85400376     0.06800
C803        C  0.13967159  0.50237964  0.87555694     0.08700
C804        C  0.15767082  0.50272100  0.89350875    -0.18100
C805        C  0.10110899  0.49740557  0.65844379    -0.17200
C806        C  0.11911401  0.49725604  0.64046551     0.06800
C807        C  0.14089763  0.49695178  0.62011676     0.08700
C808        C  0.15990637  0.49672243  0.60320147    -0.18100
C809        C  0.33556013  0.99944875  0.60261576    -0.17200
C810        C  0.35343758  0.99969005  0.62069915     0.06800
C811        C  0.37395720  0.49993832  0.64231314     0.08700
C812        C  0.39124945  0.50048459  0.66095048    -0.18100
C813        C  0.49983069  0.60753483  0.83400400    -0.17200
C814        C  0.49953844  0.62501475  0.85253473     0.06800
C815        C  0.99931674  0.64593393  0.87384964     0.08700
C816        C  0.99935472  0.66414124  0.89166670    -0.18100
C817        C  0.50139725  0.84108665  0.89482190    -0.17200
C818        C  0.50065507  0.85995539  0.87779290     0.06800
C819        C  0.49929498  0.88118443  0.85695662     0.08700
C820        C  0.49792680  0.89853786  0.83842081    -0.18100
C821        C  0.49555425  0.83748084  0.60478240    -0.17200
C822        C  0.49593910  0.85537984  0.62282760     0.06800
C823        C  0.99577155  0.87618076  0.64413318     0.08700
C824        C  0.99519009  0.89380260  0.66244559    -0.18100
C825        C  0.99358659  0.66233324  0.60156955    -0.17200
C826        C  0.99460812  0.64355016  0.61870267     0.06800
C827        C  0.99599004  0.62215050  0.63940009     0.08700
C828        C  0.99712025  0.60446559  0.65765835    -0.18100
C829        C  0.49835956  0.08416257  0.18013722     0.43700
N830        N  0.98596019  0.05935676  0.21567211     0.02600
C831        C  0.57083827  0.47488927  0.29927955    -0.04100
H832        H  0.57233320  0.45044211  0.19060245     0.08100
C833        C  0.96941771  0.42640708  0.19800846    -0.05600
Co834      Co  0.53565732  0.03551087  0.24634238     0.74200
N835        N  0.55397573  0.48321723  0.21641175    -0.24800
Co836      Co  0.53164114  0.46253454  0.24808851     0.74100
C837        C  0.49434295  0.41455355  0.18452433     0.43800
N838        N  0.93763800  0.48959690  0.21806554     0.02200
N839        N  0.50750666  0.44128478  0.21824472     0.02300
N840        N  0.57291843  0.02261226  0.29762300    -0.45600
H841        H  0.54552196  0.07611387  0.18829479     0.08100
N842        N  0.55562196  0.01099257  0.21567148     0.02600
N843        N  0.50845176  0.44286393  0.27979500     0.02400
C844        C  0.99636500  0.41832526  0.31556119     0.44000
N845        N  0.93926882  0.01742370  0.21744724    -0.24200
C846        C  0.52513038  0.07533504  0.29773954    -0.05200
N847        N  0.97583394  0.07524707  0.19500241    -0.45400
N848        N  0.51876064  0.42717686  0.30051058    -0.45600
C849        C  0.00035955  0.08724133  0.31144494     0.43700
N850        N  0.55656160  0.01238854  0.27741072     0.02600
N851        N  0.93998672  0.01894404  0.27887871    -0.24300
N852        N  0.51377500  0.05776537  0.21538652    -0.24800
N853        N  0.93841144  0.49112631  0.27969890     0.02200
H854        H  0.92077073  0.05176232  0.30399489     0.08100
H855        H  0.94911935  0.42623921  0.30770041     0.08200
N856        N  0.55503810  0.48460620  0.27791689    -0.24800
N857        N  0.97968418  0.44276826  0.21867741    -0.24400
N858        N  0.98686731  0.06087463  0.27743073     0.02600
C859        C  0.58054668  0.99719231  0.18072774     0.44000
C860        C  0.92332757  0.02705193  0.19614021    -0.05700
N861        N  0.98063001  0.44442216  0.28022063    -0.24400
H862        H  0.94735730  0.42286931  0.19344855     0.08200
N863        N  0.57163843  0.02028437  0.19472023    -0.45600
H864        H  0.92001832  0.04895359  0.19068357     0.08100
C865        C  0.91260913  0.50500052  0.31397997     0.43800
C866        C  0.52356422  0.07293677  0.19360096    -0.05200
Co867      Co  0.96262056  0.03963272  0.24736002     0.73800
N868        N  0.92099704  0.47932584  0.19810116    -0.45400
C869        C  0.58244340  0.50011477  0.31220389     0.44100
N870        N  0.97738191  0.07763228  0.29771324    -0.45400
Co871      Co  0.95859632  0.46654929  0.24918858     0.73900
C872        C  0.97102378  0.42938528  0.30218612    -0.05700
C873        C  0.56916775  0.47258158  0.19505669    -0.05200
N874        N  0.51468864  0.05924245  0.27694320    -0.24800
N875        N  0.51718783  0.42440342  0.19820200    -0.45500
H876        H  0.57403593  0.45297183  0.30474000     0.08100
C877        C  0.92420543  0.02961823  0.29979489    -0.05700
Cl878      Cl  0.49710556  0.00105374  0.24775264    -0.48700
C879        C  0.91155635  0.00178246  0.18341300     0.43900
H880        H  0.54723633  0.07861920  0.30229865     0.08100
N881        N  0.92195598  0.48187447  0.30032913    -0.45400
C882        C  0.58015916  0.18423910  0.50113878     0.43700
N883        N  0.55572796  0.21968472  0.48786274     0.02600
C884        C  0.96955007  0.30298209  0.07145279    -0.05300
H885        H  0.94606026  0.19433725  0.07292220     0.08100
C886        C  0.92288083  0.20104735  0.46911349    -0.05600
Co887      Co  0.53093417  0.25073525  0.03682363     0.74200
N888        N  0.97863655  0.22055158  0.05474098    -0.24800
Co889      Co  0.95795775  0.25186087  0.03163215     0.74100
C890        C  0.91038293  0.18785459  0.49389562     0.43800
N891        N  0.98693768  0.22090729  0.43830043     0.02200
N892        N  0.93716929  0.22156100  0.00733828     0.02300
N893        N  0.51725477  0.30147136  0.07426894    -0.45600
H894        H  0.57128170  0.19283241  0.04801116     0.08100
N895        N  0.50643410  0.22017351  0.05673805     0.02600
N896        N  0.93846879  0.28324932  0.00760539     0.02400
C897        C  0.91405151  0.31872834  0.49424893     0.44000
N898        N  0.51473072  0.22064508  0.44037327    -0.24200
C899        C  0.57048719  0.30230005  0.02632105    -0.05200
N900        N  0.57169191  0.19884649  0.47825743    -0.45400
N901        N  0.92249235  0.30410978  0.01717611    -0.45600
C902        C  0.58269039  0.31574039  0.50153869     0.43700
N903        N  0.50735807  0.28171984  0.05718269     0.02600
N904        N  0.51568375  0.28219801  0.44082177    -0.24300
N905        N  0.55366139  0.21969960  0.01563353    -0.24800
N906        N  0.98790526  0.28268575  0.43873280     0.02200
H907        H  0.54849426  0.30853270  0.42325158     0.08100
H908        H  0.92289875  0.31003923  0.44738105     0.08200
N909        N  0.97955971  0.28205293  0.05525962    -0.24800
N910        N  0.93918893  0.22170610  0.47952053    -0.24400
N911        N  0.55679003  0.28139320  0.48813813     0.02600
C912        C  0.49292938  0.18526944  0.08179361     0.44000
C913        C  0.52489251  0.19943216  0.42464967    -0.05700
N914        N  0.94053796  0.28320715  0.47978537    -0.24400
H915        H  0.91969147  0.19638831  0.44702129     0.08200
N916        N  0.51588120  0.19945020  0.07295146    -0.45600
H917        H  0.54693506  0.19432309  0.42167583     0.08100
C918        C  0.00173210  0.31787892  0.41425105     0.43800
C919        C  0.56856635  0.19797463  0.02595091    -0.05200
Co920      Co  0.53622287  0.25096643  0.46389284     0.73800
N921        N  0.97721438  0.20077941  0.42151023    -0.45400
C922        C  0.99459376  0.31579508  0.08370892     0.44100
N923        N  0.57357021  0.30162160  0.47863539    -0.45400
Co924      Co  0.96324075  0.25209277  0.45857982     0.73900
C925        C  0.92561922  0.30492253  0.46944717    -0.05700
C926        C  0.96815648  0.19916580  0.07005110    -0.05200
N927        N  0.55469777  0.28126412  0.01591131    -0.24800
N928        N  0.91994842  0.20168482  0.01682392    -0.45500
H929        H  0.94754505  0.30800001  0.07478316     0.08100
C930        C  0.52635528  0.30370839  0.42586039    -0.05700
Cl931      Cl  0.49706958  0.25141111  0.49772687    -0.48700
C932        C  0.49999301  0.18630380  0.41245334     0.43900
H933        H  0.57344475  0.30714133  0.04840324     0.08100
N934        N  0.97863941  0.30370138  0.42278139    -0.45400
C935        C  0.81367588  0.49875712  0.08170253     0.43700
N936        N  0.77873965  0.01158354  0.05633232     0.02600
C937        C  0.69577881  0.42711014  0.47076426    -0.05300
H938        H  0.80511738  0.42731784  0.44660455     0.08100
C939        C  0.79730854  0.03018366  0.42436588    -0.05600
Co940      Co  0.74831142  0.46215185  0.03171632     0.74200
N941        N  0.77853951  0.44468078  0.47933387    -0.24800
Co942      Co  0.74678189  0.46712684  0.45874541     0.74100
C943        C  0.81114508  0.50558682  0.41230366     0.43800
N944        N  0.77638590  0.06096069  0.48713074     0.02200
N945        N  0.77675760  0.49176388  0.43795348     0.02300
N946        N  0.69769559  0.42435667  0.01846526    -0.45600
H947        H  0.80561054  0.45176595  0.07299204     0.08100
N948        N  0.77916278  0.44280960  0.00710448     0.02600
N949        N  0.71505185  0.49061465  0.43921372     0.02400
C950        C  0.67979506  0.00345368  0.41417312     0.44000
N951        N  0.77703448  0.05902856  0.01491840    -0.24200
C952        C  0.69674167  0.47188945  0.07138840    -0.05200
N953        N  0.79903302  0.02142815  0.07282592    -0.45400
N954        N  0.69457516  0.48074336  0.42296052    -0.45600
C955        C  0.68289323  0.99648387  0.08342274     0.43700
N956        N  0.71748333  0.44128810  0.00833308     0.02600
N957        N  0.71547907  0.05776334  0.01620458    -0.24300
N958        N  0.77901343  0.48381594  0.05439747    -0.24800
N959        N  0.71475769  0.05963754  0.48840746     0.02200
H960        H  0.68962653  0.07598157  0.04904065     0.08100
H961        H  0.68785453  0.05044054  0.42290429     0.08200
N962        N  0.71692086  0.44318598  0.48053334    -0.24800
N963        N  0.77624310  0.01953432  0.43997943    -0.24400
N964        N  0.71706180  0.01042498  0.05753733     0.02600
C965        C  0.81477655  0.41885635  0.49339861     0.44000
C966        C  0.79812859  0.07519944  0.02466452    -0.05700
N967        N  0.71469112  0.01840410  0.44118103    -0.24400
H968        H  0.80201008  0.05230831  0.42153523     0.08200
N969        N  0.80047433  0.42728603  0.01641493    -0.45600
H970        H  0.80347196  0.07840745  0.04659927     0.08100
C971        C  0.67987499  0.08454247  0.50225195     0.43800
C972        C  0.80047307  0.47377217  0.06986351    -0.05200
Co973      Co  0.74709948  0.03510620  0.03674279     0.73800
N974        N  0.79609643  0.07800212  0.47700614    -0.45400
C975        C  0.68308574  0.41497221  0.49596751     0.44100
N976        N  0.69660971  0.01962624  0.07423846    -0.45400
Co977      Co  0.74549585  0.04009937  0.46377693     0.73900
C978        C  0.69308017  0.02843992  0.42591679    -0.05700
C979        C  0.80031125  0.43003254  0.46872916    -0.05200
N980        N  0.71757820  0.48263222  0.05554552    -0.24800
N981        N  0.79729243  0.48249891  0.42139392    -0.45500
H982        H  0.69039524  0.42396286  0.44882896     0.08100
C983        C  0.69415021  0.07298698  0.02689462    -0.05700
Cl984      Cl  0.74687696  0.00112360  0.49774718    -0.48700
C985        C  0.81068183  0.08750678  0.49946421     0.43900
H986        H  0.69220854  0.44974087  0.07432784     0.08100
N987        N  0.69385975  0.07574188  0.47914917    -0.45400
C988        C  0.83780142  0.39918401  0.49378482    -0.17200
C989        C  0.85638268  0.38182068  0.49421145     0.06800
C990        C  0.87725707  0.36057315  0.49462721     0.08700
C991        C  0.89439336  0.34177460  0.49471165    -0.18100
C992        C  0.83274182  0.10835073  0.49809513    -0.17200
C993        C  0.85090700  0.12617737  0.49683512     0.06800
C994        C  0.87189962  0.14739298  0.49547002     0.08700
C995        C  0.88958720  0.16571485  0.49456307    -0.18100
C996        C  0.66069083  0.39457761  0.49734843    -0.17200
C997        C  0.64223268  0.37711028  0.49863806     0.06800
C998        C  0.62099925  0.35622436  0.50002293     0.08700
C999        C  0.60326800  0.33799734  0.50091262    -0.18100
C1000       C  0.60011719  0.16148795  0.50067745    -0.17200
C1001       C  0.61754353  0.14297658  0.50083562     0.06800
C1002       C  0.63864418  0.12198087  0.50140290     0.08700
C1003       C  0.65718774  0.10459052  0.50190952    -0.18100
C1004       C  0.83403744  0.50526500  0.39241120    -0.17200
C1005       C  0.85280863  0.50502679  0.37521944     0.06800
C1006       C  0.87423236  0.50482722  0.35446606     0.08700
C1007       C  0.89201985  0.50478207  0.33625506    -0.18100
C1008       C  0.60220006  0.50136210  0.33510473    -0.17200
C1009       C  0.61919269  0.50194522  0.35400386     0.06800
C1010       C  0.63965435  0.00239663  0.37557446     0.08700
C1011       C  0.65766773  0.00272502  0.39351420    -0.18100
C1012       C  0.60112692  0.99738435  0.15846873    -0.17200
C1013       C  0.61912217  0.99724047  0.14047709     0.06800
C1014       C  0.64089290  0.99694806  0.12010825     0.08700
C1015       C  0.65989371  0.99672700  0.10317995    -0.18100
C1016       C  0.83555920  0.49947614  0.10262718    -0.17200
C1017       C  0.85344802  0.49972625  0.12070097     0.06800
C1018       C  0.87400613  0.99995863  0.14229577     0.08700
C1019       C  0.89130406  0.00049065  0.16092907    -0.18100
C1020       C  0.99983089  0.10760784  0.33397170    -0.17200
C1021       C  0.99954794  0.12506107  0.35252740     0.06800
C1022       C  0.49933888  0.14594463  0.37387610     0.08700
C1023       C  0.49937966  0.16413300  0.39171137    -0.18100
C1024       C  0.00137817  0.34110461  0.39483232    -0.17200
C1025       C  0.00062158  0.35997494  0.37780861     0.06800
C1026       C  0.99925323  0.38120330  0.35697637     0.08700
C1027       C  0.99789120  0.39855606  0.33844184    -0.18100
C1028       C  0.99552923  0.33744624  0.10485769    -0.17200
C1029       C  0.99591961  0.35536615  0.12288320     0.06800
C1030       C  0.49576863  0.37620090  0.14415677     0.08700
C1031       C  0.49519896  0.39384371  0.16244948    -0.18100
C1032       C  0.49360455  0.16229059  0.10154184    -0.17200
C1033       C  0.49463094  0.14348175  0.11864790     0.06800
C1034       C  0.49600978  0.12207203  0.13933741     0.08700
C1035       C  0.49713132  0.10439971  0.15760972    -0.18100
C1036       C  0.49831344  0.08422174  0.68016720     0.43700
N1037       N  0.98593038  0.05935531  0.71566367     0.02600
C1038       C  0.57075729  0.47487390  0.79931369    -0.04100
H1039       H  0.57236445  0.45044503  0.69058883     0.08100
C1040       C  0.96939907  0.42639275  0.69799787    -0.05600
Co1041     Co  0.53565048  0.03552268  0.74633032     0.74200
N1042       N  0.55398382  0.48321051  0.71639548    -0.24800
Co1043     Co  0.53162939  0.46252235  0.74806577     0.74100
C1044       C  0.49432206  0.41453821  0.68450942     0.43800
N1045       N  0.93764852  0.48961249  0.71805254     0.02200
N1046       N  0.50749354  0.44128396  0.71821454     0.02300
N1047       N  0.57297371  0.02260918  0.79758756    -0.45600
H1048       H  0.54548029  0.07620283  0.68832435     0.08100
N1049       N  0.55561345  0.01101696  0.71565108     0.02600
N1050       N  0.50843117  0.44284944  0.77976954     0.02400
C1051       C  0.99633749  0.41834216  0.81555768     0.44000
N1052       N  0.93923713  0.01740506  0.71743848    -0.24200
C1053       C  0.52510499  0.07529425  0.79776334    -0.05200
N1054       N  0.97579334  0.07526628  0.69501518    -0.45400
N1055       N  0.51873487  0.42717358  0.80049679    -0.45600
C1056       C  0.00032807  0.08717912  0.81147758     0.43700
N1057       N  0.55658928  0.01239670  0.77738922     0.02600
N1058       N  0.94000249  0.01892595  0.77886471    -0.24300
N1059       N  0.51374684  0.05778527  0.71538269    -0.24800
N1060       N  0.93841353  0.49113869  0.77968552     0.02200
H1061       H  0.92085134  0.05175591  0.80401273     0.08100
H1062       H  0.94909618  0.42627634  0.80769832     0.08200
N1063       N  0.55500484  0.48458595  0.77791344    -0.24800
N1064       N  0.97967040  0.44276493  0.71865610    -0.24400
N1065       N  0.98685139  0.06085485  0.77742261     0.02600
C1066       C  0.58053092  0.99721919  0.68070667     0.44000
C1067       C  0.92325097  0.02703394  0.69616372    -0.05700
N1068       N  0.98061099  0.44442072  0.78019926    -0.24400
H1069       H  0.94733623  0.42284816  0.69344785     0.08200
N1070       N  0.57162063  0.02031240  0.69469528    -0.45600
H1071       H  0.91991771  0.04893371  0.69072532     0.08100
C1072       C  0.91263209  0.50501588  0.81398655     0.43800
C1073       C  0.52352602  0.07299539  0.69361872    -0.05200
Co1074     Co  0.96260685  0.03961681  0.74734537     0.73800
N1075       N  0.92100620  0.47933903  0.69809325    -0.45400
C1076       C  0.58233124  0.50010361  0.81225949     0.44100
N1077       N  0.97735727  0.07758454  0.79772432    -0.45400
Co1078     Co  0.95859023  0.46655615  0.74917039     0.73900
C1079       C  0.97099985  0.42940284  0.80217602    -0.05700
C1080       C  0.56919420  0.47258257  0.69504744    -0.05200
N1081       N  0.51467306  0.05922685  0.77694300    -0.24800
N1082       N  0.51717029  0.42439718  0.69817436    -0.45500
H1083       H  0.57393828  0.45295728  0.80479107     0.08100
C1084       C  0.92426457  0.02960885  0.79980498    -0.05700
Cl1085     Cl  0.49710747  0.00105322  0.74773064    -0.48700
C1086       C  0.91146396  0.00176357  0.68345028     0.43900
H1087       H  0.54721112  0.07857266  0.80233678     0.08100
N1088       N  0.92196597  0.48189000  0.80032456    -0.45400
C1089       C  0.58013085  0.18420200  0.00113444     0.43700
N1090       N  0.55571467  0.21966444  0.98785817     0.02600
C1091       C  0.96954705  0.30300272  0.57141085    -0.05300
H1092       H  0.94603743  0.19433924  0.57286145     0.08100
C1093       C  0.92290880  0.20102683  0.96913436    -0.05600
Co1094     Co  0.53093446  0.25074569  0.53681807     0.74200
N1095       N  0.97862305  0.22055883  0.55470677    -0.24800
Co1096     Co  0.95795464  0.25187468  0.53160482     0.74100
C1097       C  0.91043233  0.18781613  0.99391488     0.43800
N1098       N  0.98691273  0.22090482  0.93829866     0.02200
N1099       N  0.93714856  0.22158235  0.50731381     0.02300
N1100       N  0.51725044  0.30148695  0.57424024    -0.45600
H1101       H  0.57130265  0.19286002  0.54801443     0.08100
N1102       N  0.50641995  0.22017870  0.55671418     0.02600
N1103       N  0.93849334  0.28327049  0.50757742     0.02400
C1104       C  0.91396232  0.31866302  0.99426686     0.44000
N1105       N  0.51470604  0.22063215  0.94036415    -0.24200
C1106       C  0.57050786  0.30231475  0.52632199    -0.05200
N1107       N  0.57166648  0.19881479  0.97825338    -0.45400
N1108       N  0.92255435  0.30415505  0.51715286    -0.45600
C1109       C  0.58266498  0.31573243  0.00154213     0.43700
N1110       N  0.50735492  0.28172803  0.55716323     0.02600
N1111       N  0.51566541  0.28218386  0.94080636    -0.24300
N1112       N  0.55367004  0.21971650  0.51563702    -0.24800
N1113       N  0.98788502  0.28268305  0.93873713     0.02200
H1114       H  0.54847488  0.30848063  0.92317828     0.08100
H1115       H  0.92282468  0.30997651  0.94740164     0.08200
N1116       N  0.97955778  0.28206309  0.55523270    -0.24800
N1117       N  0.93920113  0.22169427  0.97954412    -0.24400
N1118       N  0.55677200  0.28138280  0.98813285     0.02600
C1119       C  0.49290122  0.18526158  0.58174508     0.44000
C1120       C  0.52485389  0.19941806  0.92463111    -0.05700
N1121       N  0.94051478  0.28318689  0.97981275    -0.24400
H1122       H  0.91971862  0.19637147  0.94704087     0.08200
N1123       N  0.51585797  0.19944733  0.57292237    -0.45600
H1124       H  0.54689198  0.19430058  0.92164915     0.08100
C1125       C  0.00171029  0.31784436  0.91420468     0.43800
C1126       C  0.56858500  0.19800016  0.52595609    -0.05200
Co1127     Co  0.53620666  0.25095189  0.96388541     0.73800
N1128       N  0.97717571  0.20078330  0.92150769    -0.45400
C1129       C  0.99458941  0.31581923  0.58366441     0.44100
N1130       N  0.57354965  0.30161568  0.97863439    -0.45400
Co1131     Co  0.96322830  0.25208747  0.95859701     0.73900
C1132       C  0.92555865  0.30487377  0.96947037    -0.05700
C1133       C  0.96813492  0.19916628  0.57000073    -0.05200
N1134       N  0.55471361  0.28127806  0.51591619    -0.24800
N1135       N  0.91990680  0.20172412  0.51680137    -0.45500
H1136       H  0.94754199  0.30802809  0.57473040     0.08100
C1137       C  0.52633629  0.30367286  0.92581167    -0.05700
Cl1138     Cl  0.49706355  0.25140269  0.99773745    -0.48700
C1139       C  0.49994491  0.18630065  0.91243845     0.43900
H1140       H  0.57346319  0.30716296  0.54840210     0.08100
N1141       N  0.97861722  0.30368797  0.92277129    -0.45400
C1142       C  0.81368626  0.49871863  0.58171324     0.43700
N1143       N  0.77869763  0.01159283  0.55632990     0.02600
C1144       C  0.69579561  0.42705116  0.97078039    -0.05300
H1145       H  0.80508961  0.42737013  0.94656962     0.08100
C1146       C  0.79726750  0.03022091  0.92428582    -0.05600
Co1147     Co  0.74832114  0.46214792  0.53171445     0.74200
N1148       N  0.77851738  0.44470232  0.97931829    -0.24800
Co1149     Co  0.74675141  0.46713578  0.95873879     0.74100
C1150       C  0.81115257  0.50558540  0.91232389     0.43800
N1151       N  0.77642635  0.06095360  0.98712457     0.02200
N1152       N  0.77673213  0.49176871  0.93794138     0.02300
N1153       N  0.69765075  0.42441689  0.51844964    -0.45600
H1154       H  0.80559027  0.45173341  0.57300715     0.08100
N1155       N  0.77916921  0.44279150  0.50712073     0.02600
N1156       N  0.71502339  0.49062910  0.93919999     0.02400
C1157       C  0.67981582  0.00342443  0.91418113     0.44000
N1158       N  0.77698448  0.05904606  0.51492490    -0.24200
C1159       C  0.69670856  0.47190977  0.57132184    -0.05200
N1160       N  0.79900488  0.02144002  0.57280459    -0.45400
N1161       N  0.69457266  0.48076863  0.92290708    -0.45600
C1162       C  0.68288824  0.99646293  0.58344772     0.43700
N1163       N  0.71748461  0.44129964  0.50832521     0.02600
N1164       N  0.71543009  0.05775486  0.51619679    -0.24300
N1165       N  0.77903035  0.48380232  0.55439314    -0.24800
N1166       N  0.71479384  0.05964138  0.98841562     0.02200
H1167       H  0.68956594  0.07597217  0.54902367     0.08100
H1168       H  0.68783788  0.05041588  0.92293015     0.08200
N1169       N  0.71690423  0.44317716  0.98054034    -0.24800
N1170       N  0.77625380  0.01954772  0.93995039    -0.24400
N1171       N  0.71702620  0.01041673  0.55753558     0.02600
C1172       C  0.81478275  0.41890193  0.99335360     0.44000
C1173       C  0.79806972  0.07523022  0.52467046    -0.05700
N1174       N  0.71471288  0.01839707  0.94118198    -0.24400
H1175       H  0.80192936  0.05235166  0.92143443     0.08200
N1176       N  0.80046414  0.42725742  0.51644880    -0.45600
H1177       H  0.80340684  0.07844693  0.54660466     0.08100
C1178       C  0.67991547  0.08455095  0.00227222     0.43800
C1179       C  0.80047444  0.47374366  0.56986896    -0.05200
Co1180     Co  0.74705333  0.03510943  0.53674356     0.73800
N1181       N  0.79613940  0.07799339  0.97700149    -0.45400
C1182       C  0.68314566  0.41487716  0.99598955     0.44100
N1183       N  0.69658645  0.01961091  0.57425398    -0.45400
Co1184     Co  0.74552184  0.04010004  0.96377309     0.73900
C1185       C  0.69308525  0.02841879  0.92593074    -0.05700
C1186       C  0.80029387  0.43007362  0.96869706    -0.05200
N1187       N  0.71758834  0.48263893  0.55552710    -0.24800
N1188       N  0.79727902  0.48250134  0.92139622    -0.45500
H1189       H  0.69042019  0.42387861  0.94884466     0.08100
C1190       C  0.69409637  0.07297550  0.52687942    -0.05700
Cl1191     Cl  0.74691806  0.00112296  0.99774362    -0.48700
C1192       C  0.81073458  0.08748243  0.99946045     0.43900
H1193       H  0.69214037  0.44976301  0.57423348     0.08100
N1194       N  0.69389005  0.07574340  0.97916493    -0.45400
C1195       C  0.83781185  0.39922903  0.99371691    -0.17200
C1196       C  0.85638130  0.38184997  0.99414488     0.06800
C1197       C  0.87722271  0.36056548  0.99459556     0.08700
C1198       C  0.89432562  0.34173339  0.99471734    -0.18100
C1199       C  0.83278866  0.10832962  0.99809864    -0.17200
C1200       C  0.85095136  0.12615671  0.99684462     0.06800
C1201       C  0.87194587  0.14736593  0.99548053     0.08700
C1202       C  0.88963713  0.16568125  0.99457612    -0.18100
C1203       C  0.66077621  0.39445690  0.99738691    -0.17200
C1204       C  0.64231490  0.37699455  0.99868699     0.06800
C1205       C  0.62105087  0.35614104  0.00006402     0.08700
C1206       C  0.60328281  0.33795020  0.00093303    -0.18100
C1207       C  0.60008594  0.16144123  0.00067549    -0.17200
C1208       C  0.61751715  0.14293027  0.00084322     0.06800
C1209       C  0.63863632  0.12194663  0.00142199     0.08700
C1210       C  0.65720158  0.10457543  0.00193336    -0.18100
C1211       C  0.83405979  0.50526207  0.89244028    -0.17200
C1212       C  0.85283772  0.50502918  0.87525094     0.06800
C1213       C  0.87426561  0.50483838  0.85449411     0.08700
C1214       C  0.89205087  0.50479859  0.83627638    -0.18100
C1215       C  0.60213549  0.50135897  0.83511420    -0.17200
C1216       C  0.61918474  0.50196756  0.85395905     0.06800
C1217       C  0.63964718  0.00234223  0.87560620     0.08700
C1218       C  0.65766716  0.00267905  0.89354175    -0.18100
C1219       C  0.60110927  0.99740759  0.65845393    -0.17200
C1220       C  0.61911092  0.99724651  0.64047385     0.06800
C1221       C  0.64089298  0.99693184  0.62012573     0.08700
C1222       C  0.65989779  0.99670058  0.60320717    -0.18100
C1223       C  0.83553488  0.49941650  0.60266955    -0.17200
C1224       C  0.85340869  0.49966393  0.62075488     0.06800
C1225       C  0.87396337  0.99994174  0.64228257     0.08700
C1226       C  0.89122901  0.00046793  0.66094749    -0.18100
C1227       C  0.99978925  0.10754338  0.83400823    -0.17200
C1228       C  0.99949603  0.12500588  0.85255668     0.06800
C1229       C  0.49927502  0.14590946  0.87388887     0.08700
C1230       C  0.49931486  0.16411487  0.89170894    -0.18100
C1231       C  0.00134876  0.34108528  0.89479919    -0.17200
C1232       C  0.00058544  0.35997608  0.87779596     0.06800
C1233       C  0.99921496  0.38122605  0.85698257     0.08700
C1234       C  0.99785665  0.39858386  0.83845079    -0.18100
C1235       C  0.99552178  0.33746227  0.60481825    -0.17200
C1236       C  0.99590921  0.35537010  0.62285410     0.06800
C1237       C  0.49575122  0.37619023  0.64413970     0.08700
C1238       C  0.49517608  0.39382705  0.66243694    -0.18100
C1239       C  0.49356094  0.16231380  0.60152914    -0.17200
C1240       C  0.49457315  0.14353436  0.61866811     0.06800
C1241       C  0.49594377  0.12214925  0.63938369     0.08700
C1242       C  0.49707004  0.10447903  0.65765799    -0.18100
C1243       C  0.49832021  0.58413278  0.18012308     0.43700
N1244       N  0.98593878  0.55933355  0.21566717     0.02600
C1245       C  0.57073053  0.97488538  0.29934365    -0.04100
H1246       H  0.57236934  0.95042913  0.19062259     0.08100
C1247       C  0.96935551  0.92638336  0.19803906    -0.05600
Co1248     Co  0.53566028  0.53552164  0.24634127     0.74200
N1249       N  0.55397366  0.98319940  0.21641098    -0.24800
Co1250     Co  0.53161763  0.96251379  0.24807909     0.74100
C1251       C  0.49426350  0.91451781  0.18453744     0.43800
N1252       N  0.93765258  0.98961149  0.21807303     0.02200
N1253       N  0.50746979  0.94126647  0.21823056     0.02300
N1254       N  0.57303303  0.52261779  0.29756871    -0.45600
H1255       H  0.54548690  0.57611979  0.18828509     0.08100
N1256       N  0.55561658  0.51101036  0.21566362     0.02600
N1257       N  0.50843094  0.94283333  0.27978033     0.02400
C1258       C  0.99636164  0.91828442  0.31554533     0.44000
N1259       N  0.93924646  0.51740923  0.21744598    -0.24200
C1260       C  0.52509912  0.57531377  0.29776216    -0.05200
N1261       N  0.97580167  0.57521001  0.19499286    -0.45400
N1262       N  0.51874813  0.92713454  0.30048253    -0.45600
C1263       C  0.00031553  0.58719714  0.31146768     0.43700
N1264       N  0.55661488  0.51240543  0.27739745     0.02600
N1265       N  0.93998247  0.51893101  0.27887043    -0.24300
N1266       N  0.51375429  0.55775981  0.21538465    -0.24800
N1267       N  0.93841313  0.99113868  0.27970617     0.02200
H1268       H  0.92078123  0.55175278  0.30399194     0.08100
H1269       H  0.94911282  0.92622123  0.30772039     0.08200
N1270       N  0.55498838  0.98458911  0.27793131    -0.24800
N1271       N  0.97964769  0.94275433  0.21868702    -0.24400
N1272       N  0.98685187  0.56085179  0.27742712     0.02600
C1273       C  0.58048448  0.49720428  0.18068702     0.44000
C1274       C  0.92327597  0.52704137  0.19616207    -0.05700
N1275       N  0.98061074  0.94440500  0.28022513    -0.24400
H1276       H  0.94729026  0.92284905  0.19350355     0.08200
N1277       N  0.57159966  0.52030034  0.19468721    -0.45600
H1278       H  0.91995204  0.54894339  0.19072022     0.08100
C1279       C  0.91259078  0.00500836  0.31397639     0.43800
C1280       C  0.52353205  0.57292893  0.19359227    -0.05200
Co1281     Co  0.96260874  0.53961513  0.24735434     0.73800
N1282       N  0.92103556  0.97933783  0.19809222    -0.45400
C1283       C  0.58228663  0.00012084  0.31229754     0.44100
N1284       N  0.97735010  0.57758808  0.29771844    -0.45400
Co1285     Co  0.95858512  0.96655255  0.24919822     0.73900
C1286       C  0.97101345  0.92936143  0.30219221    -0.05700
C1287       C  0.56919699  0.97256678  0.19507350    -0.05200
N1288       N  0.51467485  0.55923195  0.27694884    -0.24800
N1289       N  0.51712670  0.92437164  0.19818611    -0.45500
H1290       H  0.57391173  0.95297119  0.30482833     0.08100
C1291       C  0.92421181  0.52960845  0.29979093    -0.05700
Cl1292     Cl  0.49711258  0.50105663  0.24775371    -0.48700
C1293       C  0.91149228  0.50177451  0.18344116     0.43900
H1294       H  0.54720319  0.57860387  0.30233466     0.08100
N1295       N  0.92194627  0.98188565  0.30032683    -0.45400
C1296       C  0.58023644  0.68427377  0.50112102     0.43700
N1297       N  0.55573448  0.71967300  0.48784690     0.02600
C1298       C  0.96951525  0.80296180  0.07142931    -0.05300
H1299       H  0.94604116  0.69433004  0.07291326     0.08100
C1300       C  0.92287774  0.70104194  0.46913729    -0.05600
Co1301     Co  0.53092817  0.75073055  0.03683048     0.74200
N1302       N  0.97862203  0.72053805  0.05472661    -0.24800
Co1303     Co  0.95795101  0.75185225  0.03161541     0.74100
C1304       C  0.91039474  0.68784447  0.49392428     0.43800
N1305       N  0.98690891  0.72091251  0.43829724     0.02200
N1306       N  0.93714176  0.72156732  0.00732855     0.02300
N1307       N  0.51721964  0.80147294  0.07426918    -0.45600
H1308       H  0.57129223  0.69283282  0.04801527     0.08100
N1309       N  0.50641967  0.72016630  0.05673592     0.02600
N1310       N  0.93849704  0.78325107  0.00758207     0.02400
C1311       C  0.91400186  0.81869493  0.49425987     0.44000
N1312       N  0.51470299  0.72063463  0.44036149    -0.24200
C1313       C  0.57050885  0.80229293  0.02632794    -0.05200
N1314       N  0.57173249  0.69886071  0.47823978    -0.45400
N1315       N  0.92256758  0.80414557  0.01715149    -0.45600
C1316       C  0.58259247  0.81578971  0.50152854     0.43700
N1317       N  0.50734064  0.78171303  0.05718184     0.02600
N1318       N  0.51567383  0.78218512  0.44082768    -0.24300
N1319       N  0.55365787  0.71969552  0.01564322    -0.24800
N1320       N  0.98789536  0.78269375  0.43875187     0.02200
H1321       H  0.54849663  0.80850102  0.42326194     0.08100
H1322       H  0.92285881  0.81000437  0.44739635     0.08200
N1323       N  0.97954349  0.78203589  0.05524667    -0.24800
N1324       N  0.93918606  0.72170203  0.47953952    -0.24400
N1325       N  0.55676931  0.78138513  0.48812623     0.02600
C1326       C  0.49291085  0.68527343  0.08180526     0.44000
C1327       C  0.52484592  0.69942739  0.42461676    -0.05700
N1328       N  0.94052140  0.78319696  0.47980552    -0.24400
H1329       H  0.91967741  0.69638628  0.44704512     0.08200
N1330       N  0.51586343  0.69945478  0.07296635    -0.45600
H1331       H  0.54688488  0.69431061  0.42162674     0.08100
C1332       C  0.00174388  0.81789093  0.41428532     0.43800
C1333       C  0.56856928  0.69797396  0.02595763    -0.05200
Co1334     Co  0.53621043  0.75095047  0.46388380     0.73800
N1335       N  0.97716723  0.70080266  0.42149628    -0.45400
C1336       C  0.99454461  0.81578782  0.08369344     0.44100
N1337       N  0.57351020  0.80164656  0.47862416    -0.45400
Co1338     Co  0.96322683  0.75209423  0.45859401     0.73900
C1339       C  0.92558408  0.80489629  0.46946272    -0.05700
C1340       C  0.96814027  0.69915711  0.07004198    -0.05200
N1341       N  0.55470793  0.78125980  0.01592328    -0.24800
N1342       N  0.91989048  0.70172200  0.01682471    -0.45500
H1343       H  0.94750427  0.80797231  0.07474440     0.08100
C1344       C  0.52635835  0.80369348  0.42587422    -0.05700
Cl1345     Cl  0.49706431  0.75139747  0.49772967    -0.48700
C1346       C  0.49993311  0.68632199  0.41241828     0.43900
H1347       H  0.57346558  0.80713981  0.04840649     0.08100
N1348       N  0.97864091  0.80372684  0.42281571    -0.45400
C1349       C  0.81368915  0.99872716  0.08173773     0.43700
N1350       N  0.77868876  0.51159630  0.05633787     0.02600
C1351       C  0.69579473  0.92703834  0.47077790    -0.05300
H1352       H  0.80508796  0.92734814  0.44657335     0.08100
C1353       C  0.79727944  0.53020088  0.42430296    -0.05600
Co1354     Co  0.74833955  0.96214335  0.03171492     0.74200
N1355       N  0.77851816  0.94468319  0.47932290    -0.24800
Co1356     Co  0.74675314  0.96712353  0.45874712     0.74100
C1357       C  0.81118472  0.00556433  0.41238537     0.43800
N1358       N  0.77641023  0.56095927  0.48713328     0.02200
N1359       N  0.77673607  0.99175780  0.43796623     0.02300
N1360       N  0.69768822  0.92438575  0.01844627    -0.45600
H1361       H  0.80559667  0.95173866  0.07304059     0.08100
N1362       N  0.77918633  0.94277984  0.00711338     0.02600
N1363       N  0.71502295  0.99061886  0.43920907     0.02400
C1364       C  0.67976326  0.50342301  0.41425382     0.44000
N1365       N  0.77698626  0.55901854  0.01492948    -0.24200
C1366       C  0.69670889  0.97191435  0.07130628    -0.05200
N1367       N  0.79899165  0.52144986  0.07281463    -0.45400
N1368       N  0.69457376  0.98076218  0.42291039    -0.45600
C1369       C  0.68294311  0.49645038  0.08353713     0.43700
N1370       N  0.71750775  0.94128669  0.00832294     0.02600
N1371       N  0.71542535  0.55775261  0.01618314    -0.24300
N1372       N  0.77904490  0.98380129  0.05440330    -0.24800
N1373       N  0.71477686  0.55962124  0.48840670     0.02200
H1374       H  0.68954674  0.57597145  0.04899674     0.08100
H1375       H  0.68780880  0.55041666  0.42296766     0.08200
N1376       N  0.71690537  0.94316151  0.48053997    -0.24800
N1377       N  0.77625246  0.51954145  0.43995916    -0.24400
N1378       N  0.71702030  0.51041647  0.05755161     0.02600
C1379       C  0.81478270  0.91888308  0.49335732     0.44000
C1380       C  0.79809971  0.57515505  0.02468970    -0.05700
N1381       N  0.71470870  0.51839910  0.44118553    -0.24400
H1382       H  0.80195586  0.55232970  0.42145106     0.08200
N1383       N  0.80046049  0.92720918  0.01643008    -0.45600
H1384       H  0.80343942  0.57834570  0.04662581     0.08100
C1385       C  0.67983882  0.58445455  0.50224174     0.43800
C1386       C  0.80048183  0.97374748  0.06989418    -0.05200
Co1387     Co  0.74704243  0.53510519  0.03674381     0.73800
N1388       N  0.79611808  0.57801280  0.47702273    -0.45400
C1389       C  0.68314420  0.91486242  0.49598623     0.44100
N1390       N  0.69660762  0.51960462  0.07430705    -0.45400
Co1391     Co  0.74551658  0.54009913  0.46377260     0.73900
C1392       C  0.69306220  0.52842008  0.42596171    -0.05700
C1393       C  0.80029257  0.93005206  0.46870088    -0.05200
N1394       N  0.71759965  0.98264130  0.05552285    -0.24800
N1395       N  0.79729622  0.98248496  0.42144204    -0.45500
H1396       H  0.69041714  0.92387145  0.44884467     0.08100
C1397       C  0.69408901  0.57297699  0.02685536    -0.05700
Cl1398     Cl  0.74690358  0.50112387  0.49774572    -0.48700
C1399       C  0.81069623  0.58750725  0.49949142     0.43900
H1400       H  0.69213758  0.94976809  0.07421500     0.08100
N1401       N  0.69385261  0.57568799  0.47914451    -0.45400
C1402       C  0.83782069  0.89922254  0.49372049    -0.17200
C1403       C  0.85640154  0.88185689  0.49414557     0.06800
C1404       C  0.87725743  0.86058879  0.49459182     0.08700
C1405       C  0.89436785  0.84176501  0.49470974    -0.18100
C1406       C  0.83273010  0.60837672  0.49814775    -0.17200
C1407       C  0.85088103  0.62621626  0.49689977     0.06800
C1408       C  0.87187402  0.64742665  0.49552375     0.08700
C1409       C  0.88957656  0.66573062  0.49460035    -0.18100
C1410       C  0.66074463  0.89447318  0.49738398    -0.17200
C1411       C  0.64225449  0.87704018  0.49868140     0.06800
C1412       C  0.62096262  0.85621362  0.50005378     0.08700
C1413       C  0.60318924  0.83802732  0.50091904    -0.18100
C1414       C  0.60018725  0.66151283  0.50065122    -0.17200
C1415       C  0.61758390  0.64297169  0.50080274     0.06800
C1416       C  0.63863966  0.62192872  0.50137390     0.08700
C1417       C  0.65715656  0.60450923  0.50189211    -0.18100
C1418       C  0.83406361  0.00523526  0.39247251    -0.17200
C1419       C  0.85281075  0.00499674  0.37525137     0.06800
C1420       C  0.87421054  0.00480947  0.35446795     0.08700
C1421       C  0.89199191  0.00478058  0.33624772    -0.18100
C1422       C  0.60208888  0.00138572  0.33515518    -0.17200
C1423       C  0.61914735  0.00199530  0.35399296     0.06800
C1424       C  0.63962968  0.50233506  0.37565248     0.08700
C1425       C  0.65761954  0.50267485  0.39361516    -0.18100
C1426       C  0.60107077  0.49738351  0.15844267    -0.17200
C1427       C  0.61909750  0.49721755  0.14048825     0.06800
C1428       C  0.64091760  0.49690528  0.12018134     0.08700
C1429       C  0.65994648  0.49668116  0.10328979    -0.18100
C1430       C  0.83555418  0.99943858  0.10267840    -0.17200
C1431       C  0.85344343  0.99969240  0.12074941     0.06800
C1432       C  0.87398894  0.49997444  0.14227249     0.08700
C1433       C  0.89126046  0.50048828  0.16093357    -0.18100
C1434       C  0.99976382  0.60758352  0.33397573    -0.17200
C1435       C  0.99946118  0.62505835  0.35251101     0.06800
C1436       C  0.49924306  0.64596238  0.37384035     0.08700
C1437       C  0.49929444  0.66415675  0.39167002    -0.18100
C1438       C  0.00141110  0.84111417  0.39486342    -0.17200
C1439       C  0.00066966  0.85997794  0.37783179     0.06800
C1440       C  0.99929337  0.88119340  0.35698672     0.08700
C1441       C  0.99790786  0.89853149  0.33843979    -0.18100
C1442       C  0.99545080  0.83745167  0.10482891    -0.17200
C1443       C  0.99581106  0.85537413  0.12285201     0.06800
C1444       C  0.49564432  0.87619715  0.14413677     0.08700
C1445       C  0.49508811  0.89382382  0.16244565    -0.18100
C1446       C  0.49357976  0.66232374  0.10158755    -0.17200
C1447       C  0.49459581  0.64352561  0.11870576     0.06800
C1448       C  0.49596280  0.62210260  0.13938164     0.08700
C1449       C  0.49708216  0.60440306  0.15762713    -0.18100
C1450       C  0.49835616  0.58419718  0.68015515     0.43700
N1451       N  0.98596314  0.55935478  0.71566449     0.02600
C1452       C  0.57079051  0.97488126  0.79928608    -0.04100
H1453       H  0.57237966  0.95045528  0.69061001     0.08100
C1454       C  0.96940694  0.92636502  0.69800902    -0.05600
Co1455     Co  0.53566743  0.53551055  0.74633139     0.74200
N1456       N  0.55397735  0.98322290  0.71639443    -0.24800
Co1457     Co  0.53163590  0.96252873  0.74806059     0.74100
C1458       C  0.49433147  0.91450593  0.68452691     0.43800
N1459       N  0.93763286  0.98959150  0.71805777     0.02200
N1460       N  0.50750014  0.94127610  0.71821507     0.02300
N1461       N  0.57295918  0.52260051  0.79759488    -0.45600
H1462       H  0.54552180  0.57616193  0.68831158     0.08100
N1463       N  0.55562662  0.51100401  0.71565535     0.02600
N1464       N  0.50845459  0.94284645  0.77976392     0.02400
C1465       C  0.99638598  0.91830708  0.81553755     0.44000
N1466       N  0.93926125  0.51742526  0.71742970    -0.24200
C1467       C  0.52513583  0.57527342  0.79776726    -0.05200
N1468       N  0.97583301  0.57526083  0.69500971    -0.45400
N1469       N  0.51877302  0.92715999  0.80047538    -0.45600
C1470       C  0.00036274  0.58715552  0.81148914     0.43700
N1471       N  0.55658513  0.51238412  0.77739249     0.02600
N1472       N  0.93999362  0.51894284  0.77886024    -0.24300
N1473       N  0.51377858  0.55777270  0.71538159    -0.24800
N1474       N  0.93842490  0.99112175  0.77969411     0.02200
H1475       H  0.92082094  0.55176614  0.80400121     0.08100
H1476       H  0.94913660  0.92622287  0.80769743     0.08200
N1477       N  0.55501804  0.98459737  0.77790170    -0.24800
N1478       N  0.97967641  0.94275017  0.71865849    -0.24400
N1479       N  0.98687629  0.56084822  0.77742636     0.02600
C1480       C  0.58052673  0.49721122  0.68069548     0.44000
C1481       C  0.92329154  0.52705414  0.69614364    -0.05700
N1482       N  0.98063355  0.94440578  0.78020135    -0.24400
H1483       H  0.94734554  0.92281167  0.69346430     0.08200
N1484       N  0.57162691  0.52030118  0.69469509    -0.45600
H1485       H  0.91996601  0.54895818  0.69069843     0.08100
C1486       C  0.91267086  0.00500801  0.81400899     0.43800
C1487       C  0.52356398  0.57296679  0.69360982    -0.05200
Co1488     Co  0.96262510  0.53962695  0.74734474     0.73800
N1489       N  0.92098329  0.97931731  0.69810251    -0.45400
C1490       C  0.58236592  0.00010808  0.81223707     0.44100
N1491       N  0.97738825  0.57757174  0.79773494    -0.45400
Co1492     Co  0.95859522  0.96653937  0.74917450     0.73900
C1493       C  0.97103777  0.92936814  0.80217241    -0.05700
C1494       C  0.56919919  0.97259199  0.69505771    -0.05200
N1495       N  0.51469727  0.55921623  0.77694256    -0.24800
N1496       N  0.51717872  0.92437938  0.69818381    -0.45500
H1497       H  0.57398112  0.95296416  0.80475139     0.08100
C1498       C  0.92423716  0.52962182  0.79979220    -0.05700
Cl1499     Cl  0.49711339  0.50105516  0.74773194    -0.48700
C1500       C  0.91150564  0.50178381  0.68342940     0.43900
H1501       H  0.54724105  0.57854446  0.80233972     0.08100
N1502       N  0.92198998  0.98187694  0.80034460    -0.45400
C1503       C  0.58013081  0.68420795  0.00113615     0.43700
N1504       N  0.55570751  0.71966050  0.98786774     0.02600
C1505       C  0.96956511  0.80301366  0.57139519    -0.05300
H1506       H  0.94605291  0.69435915  0.57291916     0.08100
C1507       C  0.92284733  0.70104032  0.96913557    -0.05600
Co1508     Co  0.53093805  0.75073098  0.53680924     0.74200
N1509       N  0.97863563  0.72055310  0.55472173    -0.24800
Co1510     Co  0.95795795  0.75186678  0.53161978     0.74100
C1511       C  0.91034633  0.68785935  0.99392487     0.43800
N1512       N  0.98692430  0.72088963  0.93829659     0.02200
N1513       N  0.93715780  0.72157334  0.50733403     0.02300
N1514       N  0.51726817  0.80148675  0.57421585    -0.45600
H1515       H  0.57138080  0.69289071  0.54799807     0.08100
N1516       N  0.50643387  0.72016586  0.55671331     0.02600
N1517       N  0.93847586  0.78325995  0.50759714     0.02400
C1518       C  0.91408434  0.81872462  0.99424328     0.44000
N1519       N  0.51471801  0.72062744  0.94036439    -0.24200
C1520       C  0.57043687  0.80234015  0.52630909    -0.05200
N1521       N  0.57166180  0.69881769  0.97825825    -0.45400
N1522       N  0.92251801  0.80413375  0.51716878    -0.45600
C1523       C  0.58270039  0.81571218  0.00154433     0.43700
N1524       N  0.50736353  0.78171517  0.55715882     0.02600
N1525       N  0.51568366  0.78218025  0.94082485    -0.24300
N1526       N  0.55368540  0.71970701  0.51562224    -0.24800
N1527       N  0.98790562  0.78266986  0.93873244     0.02200
H1528       H  0.54849951  0.80850781  0.92325566     0.08100
H1529       H  0.92293984  0.81002964  0.94737952     0.08200
N1530       N  0.97956626  0.78205747  0.55523342    -0.24800
N1531       N  0.93917500  0.72168955  0.97953421    -0.24400
N1532       N  0.55678736  0.78137031  0.98814524     0.02600
C1533       C  0.49292047  0.68527376  0.58177913     0.44000
C1534       C  0.52487656  0.69943120  0.92461470    -0.05700
N1535       N  0.94054873  0.78318790  0.97979074    -0.24400
H1536       H  0.91964605  0.69638176  0.94704690     0.08200
N1537       N  0.51587627  0.69944493  0.57293184    -0.45600
H1538       H  0.54691779  0.69432893  0.92162661     0.08100
C1539       C  0.00174134  0.81786280  0.91424843     0.43800
C1540       C  0.56864141  0.69801710  0.52594020    -0.05200
Co1541     Co  0.53621421  0.75094491  0.96389656     0.73800
N1542       N  0.97719748  0.70077922  0.92148695    -0.45400
C1543       C  0.99461344  0.81583536  0.58363097     0.44100
N1544       N  0.57357667  0.80159197  0.97864252    -0.45400
Co1545     Co  0.96323661  0.75207382  0.95858489     0.73900
C1546       C  0.92564884  0.80491150  0.96944677    -0.05700
C1547       C  0.96815060  0.69917514  0.57003808    -0.05200
N1548       N  0.55468963  0.78127085  0.51590320    -0.24800
N1549       N  0.91992466  0.70171195  0.51682723    -0.45500
H1550       H  0.94755987  0.80805163  0.57471143     0.08100
C1551       C  0.52636035  0.80368831  0.92586286    -0.05700
Cl1552     Cl  0.49706445  0.75138961  0.99773488    -0.48700
C1553       C  0.49997448  0.68631554  0.91240712     0.43900
H1554       H  0.57337125  0.80720229  0.54838945     0.08100
N1555       N  0.97864544  0.80368668  0.92277728    -0.45400
C1556       C  0.81368453  0.99874170  0.58168611     0.43700
N1557       N  0.77872556  0.51158387  0.55632808     0.02600
C1558       C  0.69580874  0.92708593  0.97076213    -0.05300
H1559       H  0.80508189  0.92726762  0.94658190     0.08100
C1560       C  0.79728429  0.53020013  0.92432143    -0.05600
Co1561     Co  0.74831294  0.96214315  0.53171317     0.74200
N1562       N  0.77855074  0.94467372  0.97932590    -0.24800
Co1563     Co  0.74679717  0.96712599  0.95873813     0.74100
C1564       C  0.81113958  0.00561799  0.91227372     0.43800
N1565       N  0.77640302  0.56093875  0.98713563     0.02200
N1566       N  0.77677105  0.99177067  0.93794110     0.02300
N1567       N  0.69769458  0.92434071  0.51846277    -0.45600
H1568       H  0.80560754  0.95175253  0.57297473     0.08100
N1569       N  0.77916573  0.94279306  0.50710897     0.02600
N1570       N  0.71506710  0.99061290  0.93919660     0.02400
C1571       C  0.67979051  0.50345737  0.91417201     0.44000
N1572       N  0.77700521  0.55903376  0.51492694    -0.24200
C1573       C  0.69669825  0.97189781  0.57132010    -0.05200
N1574       N  0.79902535  0.52142342  0.57281673    -0.45400
N1575       N  0.69462007  0.98074419  0.92290263    -0.45600
C1576       C  0.68290631  0.49647840  0.58345169     0.43700
N1577       N  0.71748522  0.94127047  0.50833186     0.02600
N1578       N  0.71544417  0.55773364  0.51619542    -0.24300
N1579       N  0.77901401  0.98381162  0.55439006    -0.24800
N1580       N  0.71477005  0.55964460  0.98839373     0.02200
H1581       H  0.68952462  0.57588551  0.54901483     0.08100
H1582       H  0.68784789  0.55044666  0.92289422     0.08200
N1583       N  0.71694052  0.94317657  0.98053055    -0.24800
N1584       N  0.77623787  0.51954481  0.93995621    -0.24400
N1585       N  0.71705320  0.51042136  0.55754576     0.02600
C1586       C  0.81474975  0.91878948  0.99337100     0.44000
C1587       C  0.79808462  0.57521443  0.52468645    -0.05700
N1588       N  0.71469210  0.51841491  0.94116808    -0.24400
H1589       H  0.80197652  0.55232871  0.92148553     0.08200
N1590       N  0.80047762  0.92727007  0.51641959    -0.45600
H1591       H  0.80341254  0.57842419  0.54662456     0.08100
C1592       C  0.67988992  0.58455834  0.00222087     0.43800
C1593       C  0.80047374  0.97376179  0.56984974    -0.05200
Co1594     Co  0.74707762  0.53510233  0.53674406     0.73800
N1595       N  0.79615464  0.57794176  0.97702557    -0.45400
C1596       C  0.68312745  0.91493158  0.99596469     0.44100
N1597       N  0.69661564  0.51962184  0.57426334    -0.45400
Co1598     Co  0.74550184  0.54010376  0.96376726     0.73900
C1599       C  0.69307722  0.52844747  0.92590707    -0.05700
C1600       C  0.80029560  0.92999484  0.96870983    -0.05200
N1601       N  0.71757229  0.98263288  0.55552160    -0.24800
N1602       N  0.79730308  0.98251974  0.92136802    -0.45500
H1603       H  0.69042793  0.92393463  0.94882599     0.08100
C1604       C  0.69407603  0.57291091  0.52687258    -0.05700
Cl1605     Cl  0.74686973  0.50112819  0.99774375    -0.48700
C1606       C  0.81075069  0.58740858  0.99949443     0.43900
H1607       H  0.69214108  0.94975017  0.57423775     0.08100
N1608       N  0.69388546  0.57575952  0.97912568    -0.45400
C1609       C  0.83777344  0.89911568  0.99374265    -0.17200
C1610       C  0.85636975  0.88176884  0.99416348     0.06800
C1611       C  0.87726988  0.86054821  0.99458932     0.08700
C1612       C  0.89442180  0.84176511  0.99469132    -0.18100
C1613       C  0.83281844  0.60824532  0.99815162    -0.17200
C1614       C  0.85096843  0.62608832  0.99690741     0.06800
C1615       C  0.87192416  0.64734007  0.99553714     0.08700
C1616       C  0.88957826  0.66569354  0.99461158    -0.18100
C1617       C  0.66073798  0.89452664  0.99734672    -0.17200
C1618       C  0.64227882  0.87705782  0.99863822     0.06800
C1619       C  0.62103701  0.85617645  0.00002637     0.08700
C1620       C  0.60329456  0.83795787  0.00091771    -0.18100
C1621       C  0.60010849  0.66147609  0.00066543    -0.17200
C1622       C  0.61755335  0.64298321  0.00080513     0.06800
C1623       C  0.63866822  0.62200335  0.00135817     0.08700
C1624       C  0.65721256  0.60461513  0.00186660    -0.18100
C1625       C  0.83403656  0.00531772  0.89238281    -0.17200
C1626       C  0.85281925  0.00509222  0.87520181     0.06800
C1627       C  0.87426460  0.00488059  0.85446886     0.08700
C1628       C  0.89206992  0.00480943  0.83627445    -0.18100
C1629       C  0.60213172  0.00135817  0.83513254    -0.17200
C1630       C  0.61915725  0.00194903  0.85400378     0.06800
C1631       C  0.63967159  0.50237963  0.87555691     0.08700
C1632       C  0.65767077  0.50272100  0.89350877    -0.18100
C1633       C  0.60110900  0.49740552  0.65844378    -0.17200
C1634       C  0.61911399  0.49725603  0.64046544     0.06800
C1635       C  0.64089763  0.49695178  0.62011668     0.08700
C1636       C  0.65990639  0.49672244  0.60320142    -0.18100
C1637       C  0.83556014  0.99944875  0.60261581    -0.17200
C1638       C  0.85343762  0.99969005  0.62069916     0.06800
C1639       C  0.87395714  0.49993832  0.64231316     0.08700
C1640       C  0.89124939  0.50048459  0.66095049    -0.18100
C1641       C  0.99983074  0.60753482  0.83400400    -0.17200
C1642       C  0.99953838  0.62501476  0.85253473     0.06800
C1643       C  0.49931682  0.64593393  0.87384964     0.08700
C1644       C  0.49935475  0.66414123  0.89166670    -0.18100
C1645       C  0.00139726  0.84108665  0.89482190    -0.17200
C1646       C  0.00065500  0.85995539  0.87779291     0.06800
C1647       C  0.99929497  0.88118442  0.85695663     0.08700
C1648       C  0.99792676  0.89853784  0.83842083    -0.18100
C1649       C  0.99555424  0.83748082  0.60478237    -0.17200
C1650       C  0.99593916  0.85537984  0.62282759     0.06800
C1651       C  0.49577141  0.87618081  0.64413311     0.08700
C1652       C  0.49519004  0.89380260  0.66244556    -0.18100
C1653       C  0.49358657  0.66233325  0.60156953    -0.17200
C1654       C  0.49460819  0.64355012  0.61870261     0.06800
C1655       C  0.49599009  0.62215047  0.63940010     0.08700
C1656       C  0.49712028  0.60446552  0.65765830    -0.18100
loop_ 
_geom_bond_atom_site_label_1 
_geom_bond_atom_site_label_2 
_geom_bond_distance 
_geom_bond_site_symmetry_2 
_ccdc_geom_bond_type 
C1           C38   1.455   1_655  S
C1          C207   1.436       .  S
C1          N847   1.348       .  A
N2           N19   1.325       .  A
N2          N852   1.321       .  A
N2          Co39   2.087       .  S
C3           C41   1.453       .  S
C3           N28   1.341       .  A
C3           H48   1.081       .  S
H4           C45   1.081       .  S
C5          C837   1.456       .  S
C5           N29   1.342       .  A
C5           H34   1.081       .  S
Co6          N24   2.083       .  S
Co6          N14   2.089       .  S
Co6          N46   2.088       .  S
Co6          N22   2.085       .  S
Co6         Cl50   2.454   1_455  S
N7           C45   1.341       .  A
N7          N428   1.321       .  A
N7           Co8   2.083       .  S
Co8          N11   2.081       .  S
Co8          N28   2.081       .  S
Co8          N15   2.083       .  S
Co8        Cl464   2.451   1_455  S
C9          C833   1.456       .  S
C9          C203   1.436       .  S
C9           N47   1.346   1_655  A
N10          N40   1.326       .  A
N10         N431   1.321       .  A
N10         Co43   2.086       .  S
N11          N47   1.325       .  A
N11         N857   1.321   1_455  A
N12         C455   1.348       .  A
N12          N22   1.325       .  A
H13          C38   1.082       .  S
N14          N35   1.326       .  A
N14         N421   1.321   1_545  A
N15          N20   1.324       .  A
N15         N861   1.321   1_455  A
C16          C44   1.455       .  S
C16         C199   1.435       .  S
C16         N848   1.346       .  A
N17          C32   1.341       .  A
N17         N424   1.321   1_545  A
N17         Co39   2.086       .  S
C18         C849   1.456       .  S
C18          N46   1.342       .  A
C18          H52   1.082       .  S
N19         C829   1.348       .  A
N20         C844   1.346   1_455  A
C21         C846   1.456       .  S
C21         C192   1.441       .  S
C21          N42   1.349       .  A
N22         N442   1.321   1_545  A
N23          C49   1.341       .  A
N23         N439   1.321   1_545  A
N23         Co39   2.085       .  S
N24          C38   1.341       .  A
N24         N830   1.321   1_455  A
N25          N53   1.326       .  A
N25         N437   1.321       .  A
N25         Co43   2.090       .  S
H26          C49   1.081       .  S
H27          C44   1.081       .  S
N28         N436   1.321       .  A
N29         N839   1.321       .  A
N29         Co43   2.089       .  S
N30          N42   1.326       .  A
N30         N874   1.321       .  A
N30         Co39   2.091       .  S
C31         C459   1.454       .  S
C31         C184   1.437       .  S
C31          N35   1.348   1_565  A
C32          C51   1.454       .  S
C32          H36   1.081       .  S
N33          C44   1.341       .  A
N33         N843   1.321       .  A
N33         Co43   2.086       .  S
C37         C463   1.455       .  S
C37         C179   1.438       .  S
C37          N53   1.348       .  A
Co39       Cl878   2.452       .  S
N40         C465   1.348       .  A
C41         C180   1.435       .  S
C41         N426   1.348       .  A
Co43      Cl1292   2.454       .  S
C45         C445   1.454       .  S
N46         N858   1.321   1_455  A
C49         C451   1.455       .  S
Cl50       Co422   2.451   1_645  S
Cl50       Co867   2.452       .  S
Cl50      Co1285   2.454   1_545  S
C51         C191   1.436       .  S
C51         N454   1.348   1_545  A
C54         C298   1.453       .  S
C54         C172   1.434       .  S
C54          N72   1.347       .  A
N55          N72   1.325       .  A
N55         N284   1.320       .  A
N55         Co92   2.083       .  S
C56          C94   1.455       .  S
C56          N81   1.342       .  A
C56         H101   1.081       .  S
H57          C98   1.081       .  S
C58          C62   1.457       .  S
C58          N82   1.343       .  A
C58          H87   1.081       .  S
Co59         N77   2.082       .  S
Co59         N67   2.084       .  S
Co59         N99   2.085       .  S
Co59         N75   2.083       .  S
Co59       Cl310   2.452   1_454  S
N60          C98   1.342       .  A
N60         N895   1.321       .  A
N60         Co61   2.088       .  S
Co61         N64   2.090       .  S
Co61         N81   2.088       .  S
Co61         N68   2.088       .  S
Co61      Cl1138   2.454   1_554  S
C62         C167   1.441       .  S
C62         N307   1.348       .  A
N63          N93   1.326       .  A
N63         N898   1.321       .  A
N63         Co96   2.091       .  S
N64         N100   1.326       .  A
N64         N289   1.321   1_554  A
N65         C922   1.347   1_455  A
N65          N75   1.325       .  A
H66          C91   1.081       .  S
N67          N88   1.324       .  A
N67         N888   1.321   1_455  A
N68          N73   1.326       .  A
N68         N293   1.321   1_554  A
C69          C97   1.454       .  S
C69         C163   1.435       .  S
C69         N280   1.348       .  A
N70          C85   1.342       .  A
N70         N891   1.321   1_455  A
N70         Co92   2.087       .  S
C71         C281   1.456       .  S
C71          N99   1.342       .  A
C71         H105   1.081       .  S
N73         C276   1.348   1_554  A
C74         C278   1.456       .  S
C74         C171   1.438       .  S
C74          N95   1.348       .  A
N75         N909   1.321   1_455  A
N76         C102   1.341       .  A
N76         N906   1.321   1_455  A
N76         Co92   2.081       .  S
N77          C91   1.340       .  A
N77         N262   1.320   1_554  A
N78         N106   1.325       .  A
N78         N904   1.321       .  A
N78         Co96   2.088       .  S
H79         C102   1.081       .  S
H80          C97   1.081       .  S
N81         N903   1.321       .  A
N82         N271   1.321       .  A
N82         Co96   2.089       .  S
N83          N95   1.325       .  A
N83         N306   1.321       .  A
N83         Co92   2.088       .  S
C84         C926   1.456       .  S
C84         C204   1.436       .  S
C84          N88   1.346   1_655  A
C85         C104   1.455   1_455  S
C85          H89   1.082       .  S
N86          C97   1.341       .  A
N86         N275   1.321       .  A
N86         Co96   2.085       .  S
C90         C930   1.454       .  S
C90         C196   1.435       .  S
C90         N106   1.347       .  A
C91         C261   1.453       .  S
Co92       Cl103   2.453   1_455  S
N93         C932   1.349       .  A
C94         C200   1.436       .  S
C94         N893   1.347       .  A
Co96       Cl931   2.453       .  S
C98         C912   1.456       .  S
N99         N290   1.321   1_554  A
N100        C269   1.348   1_554  A
C102        C918   1.454       .  S
Cl103      Co266   2.452   1_655  S
Cl103     Co1096   2.453       .  S
Cl103      Co924   2.453       .  S
C104        C195   1.441       .  S
C104        N921   1.349       .  A
C107        C144   1.454       .  S
C107        C188   1.436       .  S
C107        N539   1.348       .  A
N108        N125   1.325       .  A
N108        N544   1.321   1_545  A
N108       Co145   2.086       .  S
C109        C147   1.456       .  S
C109        N134   1.342       .  A
C109        H154   1.081       .  S
H110        C151   1.081       .  S
C111        C529   1.455       .  S
C111        N135   1.342       .  A
C111        H140   1.081       .  S
Co112       N130   2.082       .  S
Co112       N120   2.084       .  S
Co112       N152   2.084       .  S
Co112       N128   2.085       .  S
Co112      Cl777   2.451   1_554  S
N113        C151   1.341       .  A
N113        N327   1.321       .  A
N113       Co114   2.085       .  S
Co114       N117   2.087       .  S
Co114       N134   2.088       .  S
Co114       N121   2.087       .  S
Co114      Cl570   2.454       .  S
C115        C525   1.455       .  S
C115        C176   1.438       .  S
C115        N153   1.348       .  A
N116        N146   1.326       .  A
N116        N330   1.321       .  A
N116       Co149   2.087       .  S
N117        N153   1.325       .  A
N117        N549   1.321       .  A
N118        C354   1.347   1_554  A
N118        N128   1.325       .  A
H119        C144   1.081       .  S
N120        N141   1.325       .  A
N120        N320   1.321   1_554  A
N121        N126   1.325       .  A
N121        N553   1.321       .  A
C122        C150   1.454       .  S
C122        C183   1.435       .  S
C122        N540   1.348   1_545  A
N123        C138   1.343       .  A
N123        N323   1.321   1_554  A
N123       Co145   2.091       .  S
C124        C541   1.454       .  S
C124        N152   1.342       .  A
C124        H158   1.081       .  S
N125        C521   1.348   1_545  A
N126        C536   1.348       .  A
C127        C538   1.455       .  S
C127        C187   1.438       .  S
C127        N148   1.348   1_565  A
N128        N341   1.321   1_554  A
N129        C155   1.341       .  A
N129        N338   1.321   1_554  A
N129       Co145   2.084       .  S
N130        C144   1.341       .  A
N130        N522   1.321       .  A
N131        N159   1.325       .  A
N131        N336   1.321       .  A
N131       Co149   2.084       .  S
H132        C155   1.081       .  S
H133        C150   1.081       .  S
N134        N335   1.321       .  A
N135        N531   1.321   1_545  A
N135       Co149   2.085       .  S
N136        N148   1.326       .  A
N136        N566   1.321   1_545  A
N136       Co145   2.091       .  S
C137        C151   1.455       .  S
C137        C160   1.435       .  S
C137        N348   1.347       .  A
C138        C364   1.457   1_554  S
C138        H142   1.081       .  S
N139        C150   1.341       .  A
N139        N535   1.321   1_545  A
N139       Co149   2.084       .  S
N141        C344   1.347   1_554  A
C143        C362   1.455       .  S
C143        C175   1.435       .  S
C143        N159   1.347       .  A
Co145      Cl363   2.454   1_554  S
N146        C157   1.348       .  A
C147        C168   1.438       .  S
C147        N325   1.347       .  A
Co149      Cl156   2.451       .  S
N152        N550   1.321       .  A
C155        C350   1.455       .  S
Cl156      Co733   2.451   1_545  S
Cl156      Co528   2.454   1_545  S
Cl156      Co352   2.454       .  S
C157        C345   1.457       .  S
C157        C164   1.441       .  S
C160        C161   1.205       .  T
C161        C162   1.411       .  S
C162        C163   1.205       .  T
C164        C165   1.209       .  T
C165        C166   1.417       .  S
C166        C167   1.209       .  T
C168        C169   1.207       .  T
C169        C170   1.414       .  S
C170        C171   1.207       .  T
C172        C173   1.205       .  T
C173        C174   1.411       .  S
C174        C175   1.205       .  T
C176        C177   1.207       .  T
C177        C178   1.414       .  S
C178        C179   1.207       .  T
C180        C181   1.205       .  T
C181        C596   1.411       .  S
C182        C183   1.205       .  T
C182        C595   1.411       .  S
C184        C185   1.206       .  T
C185        C186   1.414       .  S
C186        C187   1.207       .  T
C188        C189   1.206       .  T
C189        C604   1.412       .  S
C190        C191   1.206   1_565  T
C190        C603   1.412       .  S
C192        C193   1.209       .  T
C193       C1022   1.417       .  S
C194        C195   1.208       .  T
C194       C1021   1.417       .  S
C196        C197   1.205       .  T
C197        C198   1.411       .  S
C198        C199   1.205       .  T
C200        C201   1.206       .  T
C201       C1030   1.413       .  S
C202        C203   1.206       .  T
C202       C1029   1.413       .  S
C204        C205   1.206       .  T
C205        C206   1.412       .  S
C206        C207   1.206       .  T
C208        C245   1.455   1_655  S
C208        C414   1.436       .  S
C208       N1054   1.348       .  A
N209        N226   1.325       .  A
N209       N1059   1.321       .  A
N209       Co246   2.087       .  S
C210        C248   1.453       .  S
C210        N235   1.341       .  A
C210        H255   1.081       .  S
H211        C252   1.081       .  S
C212       C1044   1.456       .  S
C212        N236   1.342       .  A
C212        H241   1.081       .  S
Co213       N231   2.083       .  S
Co213       N221   2.089       .  S
Co213       N253   2.088       .  S
Co213       N229   2.086       .  S
Co213      Cl257   2.454   1_455  S
N214        C252   1.341       .  A
N214        N635   1.321       .  A
N214       Co215   2.083       .  S
Co215       N218   2.081       .  S
Co215       N235   2.081       .  S
Co215       N222   2.083       .  S
Co215      Cl671   2.451   1_455  S
C216       C1040   1.456       .  S
C216        C410   1.436       .  S
C216        N254   1.346   1_655  A
N217        N638   1.321       .  A
N217        N247   1.325       .  A
N217       Co250   2.086       .  S
N218       N1064   1.321   1_455  A
N218        N254   1.325       .  A
N219        C662   1.348       .  A
N219        N229   1.325       .  A
H220        C245   1.081       .  S
N221        N628   1.321   1_545  A
N221        N242   1.326       .  A
N222       N1068   1.321   1_455  A
N222        N227   1.324       .  A
C223        C251   1.455       .  S
C223        C406   1.435       .  S
C223       N1055   1.346       .  A
N224        C239   1.341       .  A
N224        N631   1.321   1_545  A
N224       Co246   2.086       .  S
C225       C1056   1.456       .  S
C225        N253   1.342       .  A
C225        H259   1.081       .  S
N226       C1036   1.348       .  A
N227       C1051   1.346   1_455  A
C228       C1053   1.456       .  S
C228        C399   1.441       .  S
C228        N249   1.349       .  A
N229        N649   1.321   1_545  A
N230        C256   1.341       .  A
N230        N646   1.321   1_545  A
N230       Co246   2.084       .  S
N231        C245   1.341       .  A
N231       N1037   1.321   1_455  A
N232        N644   1.321       .  A
N232        N260   1.326       .  A
N232       Co250   2.090       .  S
H233        C256   1.081       .  S
H234        C251   1.081       .  S
N235        N643   1.320       .  A
N236       N1046   1.321       .  A
N236       Co250   2.089       .  S
N237        N249   1.326       .  A
N237       N1081   1.321       .  A
N237       Co246   2.091       .  S
C238        C666   1.454       .  S
C238        C391   1.437       .  S
C238        N242   1.348   1_565  A
C239        C258   1.454       .  S
C239        H243   1.081       .  S
N240        C251   1.342       .  A
N240       N1050   1.321       .  A
N240       Co250   2.085       .  S
C244        C670   1.455       .  S
C244        C386   1.438       .  S
C244        N260   1.348       .  A
Co246     Cl1085   2.452       .  S
N247        C672   1.348       .  A
C248        C387   1.435       .  S
C248        N633   1.348       .  A
Co250     Cl1499   2.454       .  S
C252        C652   1.454       .  S
N253       N1065   1.321   1_455  A
C256        C658   1.455       .  S
Cl257      Co629   2.451   1_645  S
Cl257     Co1074   2.452       .  S
Cl257     Co1492   2.454   1_545  S
C258        C398   1.436       .  S
C258        N661   1.348   1_545  A
C261        C379   1.434       .  S
C261        N279   1.347   1_554  A
N262        N279   1.325       .  A
N262       Co299   2.083       .  S
C263        C301   1.455       .  S
C263        N288   1.342       .  A
C263        H308   1.081       .  S
H264        C305   1.081       .  S
C265        C269   1.457       .  S
C265        N289   1.343       .  A
C265        H294   1.081       .  S
Co266       N284   2.082       .  S
Co266       N274   2.084       .  S
Co266       N306   2.086       .  S
Co266       N282   2.083       .  S
N267        C305   1.342       .  A
N267       N1102   1.321       .  A
N267       Co268   2.087       .  S
Co268       N271   2.090       .  S
Co268       N288   2.088       .  S
Co268       N275   2.088       .  S
Co268      Cl931   2.453       .  S
C269        C374   1.441       .  S
N270       N1105   1.321       .  A
N270        N300   1.326       .  A
N270       Co303   2.091       .  S
N271        N307   1.326       .  A
N272       C1129   1.347   1_455  A
N272        N282   1.325       .  A
H273        C298   1.081       .  S
N274       N1095   1.321   1_455  A
N274        N295   1.324       .  A
N275        N280   1.325       .  A
C276        C304   1.454       .  S
C276        C370   1.436       .  S
N277        C292   1.342       .  A
N277       N1098   1.321   1_455  A
N277       Co299   2.087       .  S
C278        N306   1.342       .  A
C278        H312   1.081       .  S
C281        C378   1.438       .  S
C281        N302   1.348   1_554  A
N282       N1116   1.321   1_455  A
N283        C309   1.341       .  A
N283       N1113   1.321   1_455  A
N283       Co299   2.081       .  S
N284        C298   1.340       .  A
N285       N1111   1.321       .  A
N285        N313   1.325       .  A
N285       Co303   2.088       .  S
H286        C309   1.081       .  S
H287        C304   1.081       .  S
N288       N1110   1.321       .  A
N289       Co303   2.088       .  S
N290        N302   1.325       .  A
N290       Co299   2.088       .  S
C291       C1133   1.456       .  S
C291        C411   1.436       .  S
C291        N295   1.346   1_655  A
C292        C311   1.455   1_455  S
C292        H296   1.082       .  S
N293        C304   1.341       .  A
N293       Co303   2.085       .  S
C297       C1137   1.454       .  S
C297        C403   1.435       .  S
C297        N313   1.347       .  A
Co299      Cl310   2.454   1_455  S
N300       C1139   1.349       .  A
C301        C407   1.436       .  S
C301       N1100   1.347       .  A
Co303     Cl1138   2.453       .  S
C305       C1119   1.456       .  S
C309       C1125   1.454       .  S
Cl310      Co889   2.454   1_556  S
Cl310     Co1131   2.453       .  S
C311        C402   1.441       .  S
C311       N1128   1.349       .  A
C314        C351   1.454       .  S
C314        C395   1.436       .  S
C314        N746   1.348       .  A
N315        N332   1.325       .  A
N315        N751   1.321   1_545  A
N315       Co352   2.085       .  S
C316        C354   1.456       .  S
C316        N341   1.343       .  A
C316        H361   1.081       .  S
H317        C358   1.081       .  S
C318        C736   1.455       .  S
C318        N342   1.342       .  A
C318        H347   1.081       .  S
Co319       N337   2.082       .  S
Co319       N327   2.083       .  S
Co319       N359   2.083       .  S
Co319       N335   2.085       .  S
Co319      Cl570   2.451       .  S
N320        C358   1.341       .  A
N320       Co321   2.084       .  S
Co321       N324   2.088       .  S
Co321       N341   2.089       .  S
Co321       N328   2.087       .  S
Co321      Cl777   2.454       .  S
C322        C732   1.455       .  S
C322        C383   1.438       .  S
C322        N360   1.348       .  A
N323        N353   1.326       .  A
N323       Co356   2.087       .  S
N324        N756   1.321       .  A
N324        N360   1.326       .  A
N325        N335   1.325       .  A
H326        C351   1.081       .  S
N327        N348   1.325       .  A
N328        N760   1.321       .  A
N328        N333   1.325       .  A
C329        C357   1.454       .  S
C329        C390   1.436       .  S
C329        N747   1.348   1_545  A
N330        C345   1.343       .  A
N330       Co352   2.091       .  S
C331        C748   1.455       .  S
C331        N359   1.342       .  A
C331        H365   1.081       .  S
N332        C728   1.348   1_545  A
N333        C743   1.348       .  A
C334        C745   1.455       .  S
C334        C394   1.437       .  S
C334        N355   1.348   1_565  A
N336        C362   1.341       .  A
N336       Co352   2.084       .  S
N337        C351   1.341       .  A
N337        N729   1.321       .  A
N338        N366   1.325       .  A
N338       Co356   2.084       .  S
H339        C362   1.081       .  S
H340        C357   1.081       .  S
N342        N738   1.321   1_545  A
N342       Co356   2.085       .  S
N343        N355   1.326       .  A
N343        N773   1.321   1_545  A
N343       Co352   2.091       .  S
C344        C358   1.455       .  S
C344        C367   1.435       .  S
C345        H349   1.081       .  S
N346        C357   1.341       .  A
N346        N742   1.321   1_545  A
N346       Co356   2.084       .  S
C350        C382   1.435       .  S
C350        N366   1.347   1_554  A
N353        C364   1.348       .  A
C354        C375   1.438       .  S
Co356      Cl363   2.451       .  S
N359        N757   1.321       .  A
Cl363      Co526   2.451   1_546  S
Cl363      Co735   2.455   1_545  S
C364        C371   1.441       .  S
C367        C368   1.205       .  T
C368        C369   1.412       .  S
C369        C370   1.205       .  T
C371        C372   1.209       .  T
C372        C373   1.417       .  S
C373        C374   1.209       .  T
C375        C376   1.207       .  T
C376        C377   1.414   1_556  S
C377        C378   1.207       .  T
C379        C380   1.205       .  T
C380        C381   1.411       .  S
C381        C382   1.205       .  T
C383        C384   1.207       .  T
C384        C385   1.414       .  S
C385        C386   1.207       .  T
C387        C388   1.205       .  T
C388        C803   1.411       .  S
C389        C390   1.205       .  T
C389        C802   1.412       .  S
C391        C392   1.206       .  T
C392        C393   1.413       .  S
C393        C394   1.206       .  T
C395        C396   1.205       .  T
C396        C811   1.412       .  S
C397        C398   1.206   1_565  T
C397        C810   1.412       .  S
C399        C400   1.209       .  T
C400       C1229   1.417       .  S
C401        C402   1.209       .  T
C401       C1228   1.417       .  S
C403        C404   1.205       .  T
C404        C405   1.411       .  S
C405        C406   1.205       .  T
C407        C408   1.206       .  T
C408       C1237   1.412       .  S
C409        C410   1.206       .  T
C409       C1236   1.412       .  S
C411        C412   1.206       .  T
C412        C413   1.412       .  S
C413        C414   1.206       .  T
C415        C452   1.455   1_655  S
C415        C621   1.436       .  S
C415       N1261   1.348       .  A
N416        N433   1.325       .  A
N416       N1266   1.321       .  A
N416       Co453   2.087       .  S
C417        C455   1.453   1_565  S
C417        N442   1.341       .  A
C417        H462   1.081       .  S
H418        C459   1.081       .  S
C419       C1251   1.456       .  S
C419        N443   1.342       .  A
C419        H448   1.081       .  S
Co420       N438   2.083       .  S
Co420       N428   2.089       .  S
Co420       N460   2.088       .  S
Co420       N436   2.086       .  S
Co420      Cl464   2.454   1_455  S
N421        C459   1.341       .  A
N421       Co422   2.083       .  S
Co422       N425   2.082       .  S
Co422       N442   2.081       .  S
Co422       N429   2.083       .  S
C423       C1247   1.456       .  S
C423        C617   1.436       .  S
C423        N461   1.347   1_655  A
N424        N454   1.325       .  A
N424       Co457   2.086       .  S
N425       N1271   1.321   1_455  A
N425        N461   1.325       .  A
N426        N436   1.325       .  A
H427        C452   1.082       .  S
N428        N449   1.326       .  A
N429       N1275   1.321   1_455  A
N429        N434   1.324       .  A
C430        C458   1.455       .  S
C430        C613   1.435       .  S
C430       N1262   1.346       .  A
N431        C446   1.341       .  A
N431       Co453   2.086       .  S
C432       C1263   1.456       .  S
C432        N460   1.342       .  A
C432        H466   1.081       .  S
N433       C1243   1.348       .  A
N434       C1258   1.346   1_455  A
C435       C1260   1.456       .  S
C435        C606   1.441       .  S
C435        N456   1.349       .  A
N437        C463   1.341       .  A
N437       Co453   2.084       .  S
N438        C452   1.341       .  A
N438       N1244   1.321   1_455  A
N439        N467   1.326       .  A
N439       Co457   2.090       .  S
H440        C463   1.081       .  S
H441        C458   1.081       .  S
N443       N1253   1.321       .  A
N443       Co457   2.089       .  S
N444        N456   1.326       .  A
N444       N1288   1.321       .  A
N444       Co453   2.091       .  S
C445        C598   1.437       .  S
C445        N449   1.348       .  A
C446        C465   1.454       .  S
C446        H450   1.081       .  S
N447        C458   1.342       .  A
N447       N1257   1.321       .  A
N447       Co457   2.086       .  S
C451        C593   1.438       .  S
C451        N467   1.348   1_545  A
Co453     Cl1292   2.452       .  S
C455        C594   1.435       .  S
Co457      Cl878   2.454   1_565  S
N460       N1272   1.321   1_455  A
Cl464     Co1281   2.452       .  S
Cl464      Co871   2.454       .  S
C465        C605   1.436       .  S
C468        C712   1.453       .  S
C468        C586   1.434       .  S
C468        N486   1.347       .  A
N469        N486   1.325       .  A
N469        N698   1.320       .  A
N469       Co506   2.083       .  S
C470        C508   1.455       .  S
C470        N495   1.342       .  A
C470        H515   1.081       .  S
H471        C512   1.081       .  S
C472        C476   1.457       .  S
C472        N496   1.343       .  A
C472        H501   1.081       .  S
Co473       N491   2.082       .  S
Co473       N481   2.084       .  S
Co473       N513   2.086       .  S
Co473       N489   2.083       .  S
Co473      Cl724   2.452   1_454  S
N474        C512   1.342       .  A
N474       N1309   1.321       .  A
N474       Co475   2.088       .  S
Co475       N478   2.090       .  S
Co475       N495   2.087       .  S
Co475       N482   2.088       .  S
Co475     Cl1552   2.453   1_554  S
C476        C581   1.441       .  S
C476        N721   1.348       .  A
N477       N1312   1.321       .  A
N477        N507   1.326       .  A
N477       Co510   2.091       .  S
N478        N703   1.321   1_554  A
N478        N514   1.326       .  A
N479       C1336   1.347   1_455  A
N479        N489   1.325       .  A
H480        C505   1.081       .  S
N481       N1302   1.321   1_455  A
N481        N502   1.324       .  A
N482        N707   1.321   1_554  A
N482        N487   1.325       .  A
C483        C511   1.453       .  S
C483        C577   1.436       .  S
C483        N694   1.348       .  A
N484        C499   1.342       .  A
N484       N1305   1.321   1_455  A
N484       Co506   2.087       .  S
C485        C695   1.456       .  S
C485        N513   1.342       .  A
C485        H519   1.081       .  S
N487        C690   1.348   1_554  A
C488        C692   1.456       .  S
C488        C585   1.438       .  S
C488        N509   1.348       .  A
N489       N1323   1.321   1_455  A
N490        C516   1.341       .  A
N490       N1320   1.321   1_455  A
N490       Co506   2.081       .  S
N491        C505   1.340       .  A
N491        N676   1.320   1_554  A
N492       N1318   1.321       .  A
N492        N520   1.325       .  A
N492       Co510   2.088       .  S
H493        C516   1.081       .  S
H494        C511   1.081       .  S
N495       N1317   1.321       .  A
N496        N685   1.321       .  A
N496       Co510   2.089       .  S
N497        N509   1.325       .  A
N497        N720   1.321       .  A
N497       Co506   2.088       .  S
C498       C1340   1.456       .  S
C498        C618   1.436       .  S
C498        N502   1.346   1_655  A
C499        C518   1.455   1_455  S
C499        H503   1.081       .  S
N500        C511   1.341       .  A
N500        N689   1.321       .  A
N500       Co510   2.084       .  S
C504       C1344   1.454       .  S
C504        C610   1.435       .  S
C504        N520   1.347       .  A
C505        C675   1.453       .  S
Co506      Cl517   2.453   1_455  S
N507       C1346   1.349       .  A
C508        C614   1.436       .  S
C508       N1307   1.347       .  A
Co510     Cl1345   2.453       .  S
C512       C1326   1.456       .  S
N513        N704   1.321   1_554  A
N514        C683   1.348   1_554  A
C516       C1332   1.454       .  S
Cl517      Co680   2.452   1_655  S
Cl517     Co1510   2.453       .  S
Cl517     Co1338   2.453       .  S
C518        C609   1.441       .  S
C518       N1335   1.349       .  A
C521        C558   1.454       .  S
C521        C602   1.436       .  S
N522        N539   1.325       .  A
N522       Co559   2.086       .  S
C523        C561   1.456       .  S
C523        N548   1.343       .  A
C523        H568   1.081       .  S
H524        C565   1.081       .  S
C525        N549   1.342       .  A
C525        H554   1.081       .  S
Co526       N544   2.082       .  S
Co526       N534   2.084       .  S
Co526       N566   2.084       .  S
Co526       N542   2.085       .  S
N527        C565   1.341       .  A
N527        N741   1.321       .  A
N527       Co528   2.084       .  S
Co528       N531   2.087       .  S
Co528       N548   2.089       .  S
Co528       N535   2.087       .  S
C529        C590   1.438       .  S
C529        N567   1.348   1_545  A
N530        N744   1.321       .  A
N530        N560   1.326       .  A
N530       Co563   2.087       .  S
N531        N567   1.325       .  A
N532        C768   1.347   1_554  A
N532        N542   1.325       .  A
H533        C558   1.081       .  S
N534        N734   1.321   1_554  A
N534        N555   1.325       .  A
N535        N540   1.325       .  A
C536        C564   1.454       .  S
C536        C597   1.435       .  S
N537        C552   1.343       .  A
N537        N737   1.321   1_554  A
N537       Co559   2.091       .  S
C538        N566   1.342       .  A
C538        H572   1.081       .  S
C541        C601   1.437       .  S
C541        N562   1.348       .  A
N542        N755   1.321   1_554  A
N543        C569   1.341       .  A
N543        N752   1.321   1_554  A
N543       Co559   2.084       .  S
N544        C558   1.341       .  A
N545        N750   1.321       .  A
N545        N573   1.325       .  A
N545       Co563   2.084       .  S
H546        C569   1.081       .  S
H547        C564   1.081       .  S
N548        N749   1.321       .  A
N549       Co563   2.085       .  S
N550        N562   1.326       .  A
N550       Co559   2.091       .  S
C551        C565   1.455       .  S
C551        C574   1.435       .  S
C551        N762   1.347       .  A
C552        C778   1.457   1_554  S
C552        H556   1.081       .  S
N553        C564   1.341       .  A
N553       Co563   2.084       .  S
N555        C758   1.347   1_554  A
C557        C776   1.455       .  S
C557        C589   1.435       .  S
C557        N573   1.347       .  A
Co559      Cl777   2.454   1_554  S
N560        C571   1.348       .  A
C561        C582   1.438       .  S
C561        N739   1.347       .  A
Co563      Cl570   2.451       .  S
C569        C764   1.455       .  S
Cl570      Co766   2.454       .  S
C571        C759   1.457       .  S
C571        C578   1.441       .  S
C574        C575   1.205       .  T
C575        C576   1.412       .  S
C576        C577   1.205       .  T
C578        C579   1.209       .  T
C579        C580   1.417       .  S
C580        C581   1.209       .  T
C582        C583   1.207       .  T
C583        C584   1.414       .  S
C584        C585   1.207       .  T
C586        C587   1.205       .  T
C587        C588   1.411       .  S
C588        C589   1.205       .  T
C590        C591   1.207       .  T
C591        C592   1.414       .  S
C592        C593   1.207       .  T
C594        C595   1.205       .  T
C596        C597   1.205       .  T
C598        C599   1.206       .  T
C599        C600   1.413       .  S
C600        C601   1.206       .  T
C602        C603   1.205       .  T
C604        C605   1.206       .  T
C606        C607   1.209       .  T
C607       C1436   1.417       .  S
C608        C609   1.208       .  T
C608       C1435   1.417       .  S
C610        C611   1.205       .  T
C611        C612   1.411       .  S
C612        C613   1.205       .  T
C614        C615   1.206       .  T
C615       C1444   1.413       .  S
C616        C617   1.206       .  T
C616       C1443   1.413       .  S
C618        C619   1.206       .  T
C619        C620   1.412       .  S
C620        C621   1.206       .  T
C622        C659   1.455   1_655  S
C622        C828   1.436       .  S
C622       N1468   1.348       .  A
N623        N640   1.325       .  A
N623       N1473   1.321       .  A
N623       Co660   2.087       .  S
C624        C662   1.453   1_565  S
C624        N649   1.341       .  A
C624        H669   1.081       .  S
H625        C666   1.081       .  S
C626       C1458   1.456       .  S
C626        N650   1.342       .  A
C626        H655   1.081       .  S
Co627       N645   2.083       .  S
Co627       N635   2.089       .  S
Co627       N667   2.088       .  S
Co627       N643   2.085       .  S
Co627      Cl671   2.454   1_455  S
N628        C666   1.341       .  A
N628       Co629   2.083       .  S
Co629       N632   2.081       .  S
Co629       N649   2.081       .  S
Co629       N636   2.083       .  S
C630       C1454   1.456       .  S
C630        C824   1.436       .  S
C630        N668   1.346   1_655  A
N631        N661   1.325       .  A
N631       Co664   2.086       .  S
N632       N1478   1.321   1_455  A
N632        N668   1.325       .  A
N633        N643   1.325       .  A
H634        C659   1.082       .  S
N635        N656   1.326       .  A
N636       N1482   1.321   1_455  A
N636        N641   1.324       .  A
C637        C665   1.455       .  S
C637        C820   1.435       .  S
C637       N1469   1.346       .  A
N638        C653   1.341       .  A
N638       Co660   2.086       .  S
C639       C1470   1.456       .  S
C639        N667   1.342       .  A
C639        H673   1.081       .  S
N640       C1450   1.348       .  A
N641       C1465   1.346   1_455  A
C642       C1467   1.456       .  S
C642        C813   1.441       .  S
C642        N663   1.349       .  A
N644        C670   1.341       .  A
N644       Co660   2.085       .  S
N645        C659   1.341       .  A
N645       N1451   1.321   1_455  A
N646        N674   1.326       .  A
N646       Co664   2.090       .  S
H647        C670   1.081       .  S
H648        C665   1.081       .  S
N650       N1460   1.321       .  A
N650       Co664   2.089       .  S
N651        N663   1.326       .  A
N651       N1495   1.321       .  A
N651       Co660   2.091       .  S
C652        C805   1.437       .  S
C652        N656   1.348       .  A
C653        C672   1.454       .  S
C653        H657   1.081       .  S
N654        C665   1.342       .  A
N654       N1464   1.321       .  A
N654       Co664   2.086       .  S
C658        C800   1.438       .  S
C658        N674   1.348   1_545  A
Co660     Cl1499   2.452       .  S
C662        C801   1.435       .  S
Co664     Cl1085   2.454   1_565  S
N667       N1479   1.321   1_455  A
Cl671     Co1488   2.452       .  S
Cl671     Co1078   2.454       .  S
C672        C812   1.436       .  S
C675        C793   1.434       .  S
C675        N693   1.347   1_554  A
N676        N693   1.325       .  A
N676       Co713   2.083       .  S
C677        C715   1.455       .  S
C677        N702   1.342       .  A
C677        H722   1.081       .  S
H678        C719   1.081       .  S
C679        C683   1.457       .  S
C679        N703   1.343       .  A
C679        H708   1.081       .  S
Co680       N698   2.082       .  S
Co680       N688   2.084       .  S
Co680       N720   2.085       .  S
Co680       N696   2.083       .  S
N681        C719   1.342       .  A
N681       N1516   1.321       .  A
N681       Co682   2.088       .  S
Co682       N685   2.090       .  S
Co682       N702   2.088       .  S
Co682       N689   2.088       .  S
Co682     Cl1345   2.453       .  S
C683        C788   1.441       .  S
N684       N1519   1.321       .  A
N684        N714   1.326       .  A
N684       Co717   2.091       .  S
N685        N721   1.326       .  A
N686       C1543   1.347   1_455  A
N686        N696   1.325       .  A
H687        C712   1.081       .  S
N688       N1509   1.321   1_455  A
N688        N709   1.324       .  A
N689        N694   1.326       .  A
C690        C718   1.453       .  S
C690        C784   1.435       .  S
N691        C706   1.342       .  A
N691       N1512   1.321   1_455  A
N691       Co713   2.087       .  S
C692        N720   1.342       .  A
C692        H726   1.081       .  S
C695        C792   1.438       .  S
C695        N716   1.348   1_554  A
N696       N1530   1.321   1_455  A
N697        C723   1.341       .  A
N697       N1527   1.321   1_455  A
N697       Co713   2.081       .  S
N698        C712   1.340       .  A
N699       N1525   1.321       .  A
N699        N727   1.325       .  A
N699       Co717   2.088       .  S
H700        C723   1.081       .  S
H701        C718   1.081       .  S
N702       N1524   1.321       .  A
N703       Co717   2.089       .  S
N704        N716   1.325       .  A
N704       Co713   2.088       .  S
C705       C1547   1.456       .  S
C705        C825   1.436       .  S
C705        N709   1.346   1_655  A
C706        C725   1.455   1_455  S
C706        H710   1.082       .  S
N707        C718   1.341       .  A
N707       Co717   2.084       .  S
C711       C1551   1.454       .  S
C711        C817   1.435       .  S
C711        N727   1.347       .  A
Co713      Cl724   2.453   1_455  S
N714       C1553   1.349       .  A
C715        C821   1.436       .  S
C715       N1514   1.347       .  A
Co717     Cl1552   2.453       .  S
C719       C1533   1.456       .  S
C723       C1539   1.454       .  S
Cl724     Co1303   2.453   1_556  S
Cl724     Co1545   2.453       .  S
C725        C816   1.441       .  S
C725       N1542   1.349       .  A
C728        C765   1.454       .  S
C728        C809   1.436       .  S
N729        N746   1.325       .  A
N729       Co766   2.086       .  S
C730        C768   1.456       .  S
C730        N755   1.343       .  A
C730        H775   1.081       .  S
H731        C772   1.081       .  S
C732        N756   1.342       .  A
C732        H761   1.081       .  S
Co733       N751   2.082       .  S
Co733       N741   2.084       .  S
Co733       N773   2.083       .  S
Co733       N749   2.085       .  S
N734        C772   1.341       .  A
N734       Co735   2.085       .  S
Co735       N738   2.088       .  S
Co735       N755   2.088       .  S
Co735       N742   2.087       .  S
C736        C797   1.438       .  S
C736        N774   1.348   1_545  A
N737        N767   1.326       .  A
N737       Co770   2.087       .  S
N738        N774   1.326       .  A
N739        N749   1.325       .  A
H740        C765   1.081       .  S
N741        N762   1.325       .  A
N742        N747   1.325       .  A
C743        C771   1.454       .  S
C743        C804   1.435       .  S
N744        C759   1.343       .  A
N744       Co766   2.091       .  S
C745        N773   1.342       .  A
C745        H779   1.081       .  S
C748        C808   1.437       .  S
C748        N769   1.348       .  A
N750        C776   1.341       .  A
N750       Co766   2.084       .  S
N751        C765   1.341       .  A
N752        N780   1.325       .  A
N752       Co770   2.084       .  S
H753        C776   1.081       .  S
H754        C771   1.081       .  S
N756       Co770   2.085       .  S
N757        N769   1.326       .  A
N757       Co766   2.090       .  S
C758        C772   1.455       .  S
C758        C781   1.435       .  S
C759        H763   1.081       .  S
N760        C771   1.341       .  A
N760       Co770   2.084       .  S
C764        C796   1.435       .  S
C764        N780   1.347   1_554  A
N767        C778   1.348       .  A
C768        C789   1.438       .  S
Co770      Cl777   2.451       .  S
C778        C785   1.441       .  S
C781        C782   1.205       .  T
C782        C783   1.411       .  S
C783        C784   1.205       .  T
C785        C786   1.209       .  T
C786        C787   1.417       .  S
C787        C788   1.209       .  T
C789        C790   1.207       .  T
C790        C791   1.414   1_556  S
C791        C792   1.207       .  T
C793        C794   1.205       .  T
C794        C795   1.411       .  S
C795        C796   1.205       .  T
C797        C798   1.207       .  T
C798        C799   1.414       .  S
C799        C800   1.207       .  T
C801        C802   1.205       .  T
C803        C804   1.205       .  T
C805        C806   1.206       .  T
C806        C807   1.413       .  S
C807        C808   1.206       .  T
C809        C810   1.205       .  T
C811        C812   1.205       .  T
C813        C814   1.209       .  T
C814       C1643   1.417       .  S
C815        C816   1.208       .  T
C815       C1642   1.417       .  S
C817        C818   1.205       .  T
C818        C819   1.411       .  S
C819        C820   1.205       .  T
C821        C822   1.206       .  T
C822       C1651   1.413       .  S
C823        C824   1.206       .  T
C823       C1650   1.413       .  S
C825        C826   1.206       .  T
C826        C827   1.412       .  S
C827        C828   1.206       .  T
C829        C866   1.455       .  S
C829       C1035   1.436       .  S
N830        N847   1.325       .  A
N830       Co867   2.087       .  S
C831        C869   1.453       .  S
C831        N856   1.341       .  A
C831        H876   1.081       .  S
H832        C873   1.081       .  S
C833        N857   1.342       .  A
C833        H862   1.081       .  S
Co834       N852   2.083       .  S
Co834       N842   2.089       .  S
Co834       N874   2.088       .  S
Co834       N850   2.085       .  S
Co834      Cl878   2.454       .  S
N835        C873   1.341       .  A
N835       N1256   1.321       .  A
N835       Co836   2.083       .  S
Co836       N839   2.081       .  S
Co836       N856   2.081       .  S
Co836       N843   2.083       .  S
Co836     Cl1292   2.451       .  S
C837       C1031   1.436       .  S
C837        N875   1.346       .  A
N838       N1259   1.321       .  A
N838        N868   1.326       .  A
N838       Co871   2.086       .  S
N839        N875   1.325       .  A
N840       C1283   1.348       .  A
N840        N850   1.325       .  A
H841        C866   1.082       .  S
N842       N1249   1.321   1_545  A
N842        N863   1.326       .  A
N843        N848   1.324       .  A
C844        C872   1.455       .  S
C844       C1027   1.435       .  S
N845        C860   1.341       .  A
N845       N1252   1.321   1_545  A
N845       Co867   2.086       .  S
C846        N874   1.342       .  A
C846        H880   1.081       .  S
C849       C1020   1.441   1_455  S
C849        N870   1.349   1_455  A
N850       N1270   1.321   1_545  A
N851        C877   1.341       .  A
N851       N1267   1.321   1_545  A
N851       Co867   2.085       .  S
N852        C866   1.341       .  A
N853       N1265   1.321       .  A
N853        N881   1.326       .  A
N853       Co871   2.090       .  S
H854        C877   1.081       .  S
H855        C872   1.081       .  S
N856       N1264   1.321       .  A
N857       Co871   2.089       .  S
N858        N870   1.326       .  A
N858       Co867   2.091       .  S
C859       C1287   1.454       .  S
C859       C1012   1.437       .  S
C859        N863   1.348   1_565  A
C860        C879   1.454       .  S
C860        H864   1.081       .  S
N861        C872   1.341       .  A
N861       Co871   2.086       .  S
C865       C1291   1.455       .  S
C865       C1007   1.438       .  S
C865        N881   1.348       .  A
N868       C1293   1.348       .  A
C869       C1008   1.435       .  S
C869       N1254   1.348       .  A
C873       C1273   1.454       .  S
C877       C1279   1.455       .  S
Cl878     Co1250   2.451   1_545  S
C879       C1019   1.436       .  S
C879       N1282   1.348   1_545  A
C882       C1126   1.453       .  S
C882       C1000   1.434       .  S
C882        N900   1.347       .  A
N883        N900   1.325       .  A
N883       N1112   1.320       .  A
N883       Co920   2.083       .  S
C884        C922   1.455       .  S
C884        N909   1.342       .  A
C884        H929   1.081       .  S
H885        C926   1.081       .  S
C886        C890   1.457       .  S
C886        N910   1.343       .  A
C886        H915   1.081       .  S
Co887       N905   2.082       .  S
Co887       N895   2.084       .  S
Co887       N927   2.085       .  S
Co887       N903   2.083       .  S
Co887     Cl1138   2.452   1_554  S
N888        C926   1.342       .  A
N888       Co889   2.088       .  S
Co889       N892   2.090       .  S
Co889       N909   2.088       .  S
Co889       N896   2.088       .  S
C890        C995   1.441       .  S
C890       N1135   1.348       .  A
N891        N921   1.326       .  A
N891       Co924   2.091       .  S
N892       N1117   1.321   1_554  A
N892        N928   1.326       .  A
N893        N903   1.325       .  A
H894        C919   1.081       .  S
N895        N916   1.324       .  A
N896       N1121   1.321   1_554  A
N896        N901   1.326       .  A
C897        C925   1.454       .  S
C897        C991   1.435       .  S
C897       N1108   1.348       .  A
N898        C913   1.342       .  A
N898       Co920   2.087       .  S
C899       C1109   1.456       .  S
C899        N927   1.342       .  A
C899        H933   1.081       .  S
N901       C1104   1.348   1_554  A
C902       C1106   1.456       .  S
C902        C999   1.438       .  S
C902        N923   1.348       .  A
N904        C930   1.341       .  A
N904       Co920   2.081       .  S
N905        C919   1.340       .  A
N905       N1090   1.320   1_554  A
N906        N934   1.325       .  A
N906       Co924   2.088       .  S
H907        C930   1.081       .  S
H908        C925   1.081       .  S
N910       N1099   1.321       .  A
N910       Co924   2.089       .  S
N911        N923   1.325       .  A
N911       N1134   1.321       .  A
N911       Co920   2.088       .  S
C912       C1032   1.436       .  S
C912        N916   1.346       .  A
C913        C932   1.455       .  S
C913        H917   1.082       .  S
N914        C925   1.341       .  A
N914       N1103   1.321       .  A
N914       Co924   2.085       .  S
C918       C1024   1.435       .  S
C918        N934   1.347   1_455  A
C919       C1089   1.453       .  S
Co920      Cl931   2.453       .  S
C922       C1028   1.436       .  S
N927       N1118   1.321   1_554  A
N928       C1097   1.348   1_554  A
Cl931     Co1094   2.452       .  S
C932       C1023   1.441       .  S
C935        C972   1.454       .  S
C935       C1016   1.436       .  S
C935       N1367   1.348       .  A
N936        N953   1.325       .  A
N936       N1372   1.321   1_545  A
N936       Co973   2.086       .  S
C937        C975   1.456       .  S
C937        N962   1.342       .  A
C937        H982   1.081       .  S
H938        C979   1.081       .  S
C939       C1357   1.455       .  S
C939        N963   1.342       .  A
C939        H968   1.081       .  S
Co940       N958   2.082       .  S
Co940       N948   2.084       .  S
Co940       N980   2.084       .  S
Co940       N956   2.085       .  S
Co940     Cl1605   2.451   1_554  S
N941        C979   1.341       .  A
N941       N1155   1.321       .  A
N941       Co942   2.085       .  S
Co942       N945   2.087       .  S
Co942       N962   2.088       .  S
Co942       N949   2.087       .  S
Co942     Cl1398   2.454       .  S
C943       C1353   1.455       .  S
C943       C1004   1.438       .  S
C943        N981   1.348       .  A
N944       N1158   1.321       .  A
N944        N974   1.326       .  A
N944       Co977   2.087       .  S
N945       N1377   1.321       .  A
N945        N981   1.325       .  A
N946       C1182   1.347   1_554  A
N946        N956   1.325       .  A
H947        C972   1.081       .  S
N948       N1148   1.321   1_554  A
N948        N969   1.325       .  A
N949       N1381   1.321       .  A
N949        N954   1.325       .  A
C950        C978   1.454       .  S
C950       C1011   1.435       .  S
C950       N1368   1.348   1_545  A
N951        C966   1.343       .  A
N951       N1151   1.321   1_554  A
N951       Co973   2.091       .  S
C952       C1369   1.454       .  S
C952        N980   1.342       .  A
C952        H986   1.081       .  S
N953       C1349   1.348   1_545  A
N954       C1364   1.348       .  A
C955       C1366   1.455       .  S
C955       C1015   1.438       .  S
C955        N976   1.348   1_565  A
N956       N1169   1.321   1_554  A
N957        C983   1.341       .  A
N957       N1166   1.321   1_554  A
N957       Co973   2.084       .  S
N958        C972   1.341       .  A
N958       N1350   1.321       .  A
N959       N1164   1.321       .  A
N959        N987   1.325       .  A
N959       Co977   2.084       .  S
H960        C983   1.081       .  S
H961        C978   1.081       .  S
N962       N1163   1.321       .  A
N963       N1359   1.321   1_545  A
N963       Co977   2.085       .  S
N964        N976   1.326       .  A
N964       N1394   1.321   1_545  A
N964       Co973   2.091       .  S
C965        C979   1.455       .  S
C965        C988   1.435       .  S
C965       N1176   1.347       .  A
C966       C1192   1.457   1_554  S
C966        H970   1.081       .  S
N967        C978   1.341       .  A
N967       N1363   1.321   1_545  A
N967       Co977   2.084       .  S
N969       C1172   1.347   1_554  A
C971       C1190   1.455       .  S
C971       C1003   1.435       .  S
C971        N987   1.347       .  A
Co973     Cl1191   2.454   1_554  S
N974        C985   1.348       .  A
C975        C996   1.438       .  S
C975       N1153   1.347       .  A
Co977      Cl984   2.451       .  S
N980       N1378   1.321       .  A
C983       C1178   1.455       .  S
Cl984     Co1561   2.451   1_545  S
Cl984     Co1356   2.454   1_545  S
Cl984     Co1180   2.454       .  S
C985       C1173   1.457       .  S
C985        C992   1.441       .  S
C988        C989   1.205       .  T
C989        C990   1.411       .  S
C990        C991   1.205       .  T
C992        C993   1.209       .  T
C993        C994   1.417       .  S
C994        C995   1.209       .  T
C996        C997   1.207       .  T
C997        C998   1.414       .  S
C998        C999   1.207       .  T
C1000      C1001   1.205       .  T
C1001      C1002   1.411       .  S
C1002      C1003   1.205       .  T
C1004      C1005   1.207       .  T
C1005      C1006   1.414       .  S
C1006      C1007   1.207       .  T
C1008      C1009   1.205       .  T
C1009      C1424   1.411       .  S
C1010      C1011   1.205       .  T
C1010      C1423   1.411       .  S
C1012      C1013   1.206       .  T
C1013      C1014   1.414       .  S
C1014      C1015   1.207       .  T
C1016      C1017   1.206       .  T
C1017      C1432   1.412       .  S
C1018      C1019   1.206   1_565  T
C1018      C1431   1.412       .  S
C1020      C1021   1.209       .  T
C1022      C1023   1.208       .  T
C1024      C1025   1.205       .  T
C1025      C1026   1.411   1_455  S
C1026      C1027   1.205       .  T
C1028      C1029   1.206       .  T
C1030      C1031   1.206       .  T
C1032      C1033   1.206       .  T
C1033      C1034   1.412       .  S
C1034      C1035   1.206       .  T
C1036      C1073   1.455       .  S
C1036      C1242   1.436       .  S
N1037      N1054   1.325       .  A
N1037     Co1074   2.087       .  S
C1038      C1076   1.453       .  S
C1038      N1063   1.341       .  A
C1038      H1083   1.081       .  S
H1039      C1080   1.081       .  S
C1040      N1064   1.342       .  A
C1040      H1069   1.081       .  S
Co1041     N1059   2.083       .  S
Co1041     N1049   2.089       .  S
Co1041     N1081   2.088       .  S
Co1041     N1057   2.086       .  S
Co1041    Cl1085   2.454       .  S
N1042      C1080   1.341       .  A
N1042      N1463   1.321       .  A
N1042     Co1043   2.083       .  S
Co1043     N1046   2.081       .  S
Co1043     N1063   2.081       .  S
Co1043     N1050   2.083       .  S
Co1043    Cl1499   2.451       .  S
C1044      C1238   1.436       .  S
C1044      N1082   1.346       .  A
N1045      N1466   1.321       .  A
N1045      N1075   1.325       .  A
N1045     Co1078   2.086       .  S
N1046      N1082   1.325       .  A
N1047      C1490   1.348       .  A
N1047      N1057   1.325       .  A
H1048      C1073   1.081       .  S
N1049      N1456   1.321   1_545  A
N1049      N1070   1.326       .  A
N1050      N1055   1.324       .  A
C1051      C1079   1.455       .  S
C1051      C1234   1.435       .  S
N1052      C1067   1.341       .  A
N1052      N1459   1.321   1_545  A
N1052     Co1074   2.086       .  S
C1053      N1081   1.342       .  A
C1053      H1087   1.081       .  S
C1056      C1227   1.441   1_455  S
C1056      N1077   1.349   1_455  A
N1057      N1477   1.321   1_545  A
N1058      C1084   1.341       .  A
N1058      N1474   1.321   1_545  A
N1058     Co1074   2.084       .  S
N1059      C1073   1.341       .  A
N1060      N1472   1.321       .  A
N1060      N1088   1.326       .  A
N1060     Co1078   2.090       .  S
H1061      C1084   1.081       .  S
H1062      C1079   1.081       .  S
N1063      N1471   1.320       .  A
N1064     Co1078   2.089       .  S
N1065      N1077   1.326       .  A
N1065     Co1074   2.091       .  S
C1066      C1494   1.454       .  S
C1066      C1219   1.437       .  S
C1066      N1070   1.348   1_565  A
C1067      C1086   1.454       .  S
C1067      H1071   1.081       .  S
N1068      C1079   1.342       .  A
N1068     Co1078   2.085       .  S
C1072      C1498   1.455       .  S
C1072      C1214   1.438       .  S
C1072      N1088   1.348       .  A
N1075      C1500   1.348       .  A
C1076      C1215   1.435       .  S
C1076      N1461   1.348       .  A
C1080      C1480   1.454       .  S
C1084      C1486   1.455       .  S
Cl1085    Co1457   2.451   1_545  S
C1086      C1226   1.436       .  S
C1086      N1489   1.348   1_545  A
C1089      C1207   1.434       .  S
C1089      N1107   1.347   1_554  A
N1090      N1107   1.325       .  A
N1090     Co1127   2.083       .  S
C1091      C1129   1.455       .  S
C1091      N1116   1.342       .  A
C1091      H1136   1.081       .  S
H1092      C1133   1.081       .  S
C1093      C1097   1.457       .  S
C1093      N1117   1.343       .  A
C1093      H1122   1.081       .  S
Co1094     N1112   2.082       .  S
Co1094     N1102   2.084       .  S
Co1094     N1134   2.086       .  S
Co1094     N1110   2.083       .  S
N1095      C1133   1.342       .  A
N1095     Co1096   2.087       .  S
Co1096     N1099   2.090       .  S
Co1096     N1116   2.088       .  S
Co1096     N1103   2.088       .  S
C1097      C1202   1.441       .  S
N1098      N1128   1.326       .  A
N1098     Co1131   2.091       .  S
N1099      N1135   1.326       .  A
N1100      N1110   1.325       .  A
H1101      C1126   1.081       .  S
N1102      N1123   1.324       .  A
N1103      N1108   1.325       .  A
C1104      C1132   1.454       .  S
C1104      C1198   1.436       .  S
N1105      C1120   1.342       .  A
N1105     Co1127   2.087       .  S
C1106      N1134   1.342       .  A
C1106      H1140   1.081       .  S
C1109      C1206   1.438       .  S
C1109      N1130   1.348   1_554  A
N1111      C1137   1.341       .  A
N1111     Co1127   2.081       .  S
N1112      C1126   1.340       .  A
N1113      N1141   1.325       .  A
N1113     Co1131   2.088       .  S
H1114      C1137   1.081       .  S
H1115      C1132   1.081       .  S
N1117     Co1131   2.088       .  S
N1118      N1130   1.325       .  A
N1118     Co1127   2.088       .  S
C1119      C1239   1.436       .  S
C1119      N1123   1.346       .  A
C1120      C1139   1.455       .  S
C1120      H1124   1.082       .  S
N1121      C1132   1.341       .  A
N1121     Co1131   2.085       .  S
C1125      C1231   1.435       .  S
C1125      N1141   1.347   1_455  A
Co1127    Cl1138   2.454       .  S
C1129      C1235   1.436       .  S
C1139      C1230   1.441       .  S
C1142      C1179   1.454       .  S
C1142      C1223   1.436       .  S
C1142      N1574   1.348       .  A
N1143      N1160   1.325       .  A
N1143      N1579   1.321   1_545  A
N1143     Co1180   2.085       .  S
C1144      C1182   1.456       .  S
C1144      N1169   1.343       .  A
C1144      H1189   1.081       .  S
H1145      C1186   1.081       .  S
C1146      C1564   1.455       .  S
C1146      N1170   1.342       .  A
C1146      H1175   1.081       .  S
Co1147     N1165   2.082       .  S
Co1147     N1155   2.083       .  S
Co1147     N1187   2.083       .  S
Co1147     N1163   2.085       .  S
Co1147    Cl1398   2.451       .  S
N1148      C1186   1.341       .  A
N1148     Co1149   2.084       .  S
Co1149     N1152   2.088       .  S
Co1149     N1169   2.089       .  S
Co1149     N1156   2.087       .  S
Co1149    Cl1605   2.454       .  S
C1150      C1560   1.455       .  S
C1150      C1211   1.438       .  S
C1150      N1188   1.348       .  A
N1151      N1181   1.326       .  A
N1151     Co1184   2.087       .  S
N1152      N1584   1.321       .  A
N1152      N1188   1.326       .  A
N1153      N1163   1.325       .  A
H1154      C1179   1.081       .  S
N1155      N1176   1.325       .  A
N1156      N1588   1.321       .  A
N1156      N1161   1.325       .  A
C1157      C1185   1.454       .  S
C1157      C1218   1.436       .  S
C1157      N1575   1.348   1_545  A
N1158      C1173   1.343       .  A
N1158     Co1180   2.091       .  S
C1159      C1576   1.455       .  S
C1159      N1187   1.342       .  A
C1159      H1193   1.081       .  S
N1160      C1556   1.348   1_545  A
N1161      C1571   1.348       .  A
C1162      C1573   1.455       .  S
C1162      C1222   1.437       .  S
C1162      N1183   1.348   1_565  A
N1164      C1190   1.341       .  A
N1164     Co1180   2.084       .  S
N1165      C1179   1.341       .  A
N1165      N1557   1.321       .  A
N1166      N1194   1.325       .  A
N1166     Co1184   2.084       .  S
H1167      C1190   1.081       .  S
H1168      C1185   1.081       .  S
N1170      N1566   1.321   1_545  A
N1170     Co1184   2.085       .  S
N1171      N1183   1.326       .  A
N1171      N1601   1.321   1_545  A
N1171     Co1180   2.091       .  S
C1172      C1186   1.455       .  S
C1172      C1195   1.435       .  S
C1173      H1177   1.081       .  S
N1174      C1185   1.341       .  A
N1174      N1570   1.321   1_545  A
N1174     Co1184   2.084       .  S
C1178      C1210   1.435       .  S
C1178      N1194   1.347   1_554  A
N1181      C1192   1.348       .  A
C1182      C1203   1.438       .  S
Co1184    Cl1191   2.451       .  S
N1187      N1585   1.321       .  A
Cl1191    Co1354   2.451   1_546  S
Cl1191    Co1563   2.455   1_545  S
C1192      C1199   1.441       .  S
C1195      C1196   1.205       .  T
C1196      C1197   1.412       .  S
C1197      C1198   1.205       .  T
C1199      C1200   1.209       .  T
C1200      C1201   1.417       .  S
C1201      C1202   1.209       .  T
C1203      C1204   1.207       .  T
C1204      C1205   1.414   1_556  S
C1205      C1206   1.207       .  T
C1207      C1208   1.205       .  T
C1208      C1209   1.411       .  S
C1209      C1210   1.205       .  T
C1211      C1212   1.207       .  T
C1212      C1213   1.414       .  S
C1213      C1214   1.207       .  T
C1215      C1216   1.205       .  T
C1216      C1631   1.411       .  S
C1217      C1218   1.205       .  T
C1217      C1630   1.412       .  S
C1219      C1220   1.206       .  T
C1220      C1221   1.413       .  S
C1221      C1222   1.206       .  T
C1223      C1224   1.205       .  T
C1224      C1639   1.412       .  S
C1225      C1226   1.206   1_565  T
C1225      C1638   1.412       .  S
C1227      C1228   1.209       .  T
C1229      C1230   1.209       .  T
C1231      C1232   1.205       .  T
C1232      C1233   1.411   1_455  S
C1233      C1234   1.205       .  T
C1235      C1236   1.206       .  T
C1237      C1238   1.206       .  T
C1239      C1240   1.206       .  T
C1240      C1241   1.412       .  S
C1241      C1242   1.206       .  T
C1243      C1280   1.455       .  S
C1243      C1449   1.436       .  S
N1244      N1261   1.325       .  A
N1244     Co1281   2.087       .  S
C1245      C1283   1.453   1_565  S
C1245      N1270   1.341       .  A
C1245      H1290   1.081       .  S
H1246      C1287   1.081       .  S
C1247      N1271   1.342       .  A
C1247      H1276   1.081       .  S
Co1248     N1266   2.083       .  S
Co1248     N1256   2.089       .  S
Co1248     N1288   2.088       .  S
Co1248     N1264   2.086       .  S
Co1248    Cl1292   2.454       .  S
N1249      C1287   1.341       .  A
N1249     Co1250   2.083       .  S
Co1250     N1253   2.082       .  S
Co1250     N1270   2.081       .  S
Co1250     N1257   2.083       .  S
C1251      C1445   1.436       .  S
C1251      N1289   1.347       .  A
N1252      N1282   1.325       .  A
N1252     Co1285   2.086       .  S
N1253      N1289   1.325       .  A
N1254      N1264   1.325       .  A
H1255      C1280   1.081       .  S
N1256      N1277   1.326       .  A
N1257      N1262   1.324       .  A
C1258      C1286   1.455       .  S
C1258      C1441   1.435       .  S
N1259      C1274   1.341       .  A
N1259     Co1281   2.086       .  S
C1260      N1288   1.342       .  A
C1260      H1294   1.081       .  S
C1263      C1434   1.441   1_455  S
C1263      N1284   1.349   1_455  A
N1265      C1291   1.341       .  A
N1265     Co1281   2.084       .  S
N1266      C1280   1.341       .  A
N1267      N1295   1.326       .  A
N1267     Co1285   2.090       .  S
H1268      C1291   1.081       .  S
H1269      C1286   1.081       .  S
N1271     Co1285   2.089       .  S
N1272      N1284   1.326       .  A
N1272     Co1281   2.091       .  S
C1273      C1426   1.437       .  S
C1273      N1277   1.348       .  A
C1274      C1293   1.454       .  S
C1274      H1278   1.081       .  S
N1275      C1286   1.342       .  A
N1275     Co1285   2.086       .  S
C1279      C1421   1.438       .  S
C1279      N1295   1.348   1_545  A
C1283      C1422   1.435       .  S
C1293      C1433   1.436       .  S
C1296      C1540   1.453       .  S
C1296      C1414   1.434       .  S
C1296      N1314   1.347       .  A
N1297      N1314   1.325       .  A
N1297      N1526   1.320       .  A
N1297     Co1334   2.083       .  S
C1298      C1336   1.455       .  S
C1298      N1323   1.342       .  A
C1298      H1343   1.081       .  S
H1299      C1340   1.081       .  S
C1300      C1304   1.457       .  S
C1300      N1324   1.343       .  A
C1300      H1329   1.081       .  S
Co1301     N1319   2.082       .  S
Co1301     N1309   2.084       .  S
Co1301     N1341   2.086       .  S
Co1301     N1317   2.083       .  S
Co1301    Cl1552   2.452   1_554  S
N1302      C1340   1.342       .  A
N1302     Co1303   2.088       .  S
Co1303     N1306   2.090       .  S
Co1303     N1323   2.087       .  S
Co1303     N1310   2.088       .  S
C1304      C1409   1.441       .  S
C1304      N1549   1.348       .  A
N1305      N1335   1.326       .  A
N1305     Co1338   2.091       .  S
N1306      N1531   1.321   1_554  A
N1306      N1342   1.326       .  A
N1307      N1317   1.325       .  A
H1308      C1333   1.081       .  S
N1309      N1330   1.324       .  A
N1310      N1535   1.321   1_554  A
N1310      N1315   1.325       .  A
C1311      C1339   1.453       .  S
C1311      C1405   1.436       .  S
C1311      N1522   1.348       .  A
N1312      C1327   1.342       .  A
N1312     Co1334   2.087       .  S
C1313      C1523   1.456       .  S
C1313      N1341   1.342       .  A
C1313      H1347   1.081       .  S
N1315      C1518   1.348   1_554  A
C1316      C1520   1.456       .  S
C1316      C1413   1.438       .  S
C1316      N1337   1.348       .  A
N1318      C1344   1.341       .  A
N1318     Co1334   2.081       .  S
N1319      C1333   1.340       .  A
N1319      N1504   1.320   1_554  A
N1320      N1348   1.325       .  A
N1320     Co1338   2.088       .  S
H1321      C1344   1.081       .  S
H1322      C1339   1.081       .  S
N1324      N1513   1.321       .  A
N1324     Co1338   2.089       .  S
N1325      N1337   1.325       .  A
N1325      N1548   1.321       .  A
N1325     Co1334   2.088       .  S
C1326      C1446   1.436       .  S
C1326      N1330   1.346       .  A
C1327      C1346   1.455       .  S
C1327      H1331   1.082       .  S
N1328      C1339   1.341       .  A
N1328      N1517   1.321       .  A
N1328     Co1338   2.084       .  S
C1332      C1438   1.435       .  S
C1332      N1348   1.347   1_455  A
C1333      C1503   1.453       .  S
Co1334    Cl1345   2.453       .  S
C1336      C1442   1.436       .  S
N1341      N1532   1.321   1_554  A
N1342      C1511   1.348   1_554  A
Cl1345    Co1508   2.452       .  S
C1346      C1437   1.441       .  S
C1349      C1386   1.454       .  S
C1349      C1430   1.436       .  S
N1350      N1367   1.325       .  A
N1350     Co1387   2.086       .  S
C1351      C1389   1.456       .  S
C1351      N1376   1.343       .  A
C1351      H1396   1.081       .  S
H1352      C1393   1.081       .  S
C1353      N1377   1.342       .  A
C1353      H1382   1.081       .  S
Co1354     N1372   2.082       .  S
Co1354     N1362   2.084       .  S
Co1354     N1394   2.084       .  S
Co1354     N1370   2.085       .  S
N1355      C1393   1.341       .  A
N1355      N1569   1.321       .  A
N1355     Co1356   2.084       .  S
Co1356     N1359   2.087       .  S
Co1356     N1376   2.089       .  S
Co1356     N1363   2.087       .  S
C1357      C1418   1.438       .  S
C1357      N1395   1.348   1_545  A
N1358      N1572   1.321       .  A
N1358      N1388   1.326       .  A
N1358     Co1391   2.087       .  S
N1359      N1395   1.325       .  A
N1360      C1596   1.347   1_554  A
N1360      N1370   1.325       .  A
H1361      C1386   1.081       .  S
N1362      N1562   1.321   1_554  A
N1362      N1383   1.325       .  A
N1363      N1368   1.325       .  A
C1364      C1392   1.454       .  S
C1364      C1425   1.435       .  S
N1365      C1380   1.343       .  A
N1365      N1565   1.321   1_554  A
N1365     Co1387   2.091       .  S
C1366      N1394   1.342       .  A
C1366      H1400   1.081       .  S
C1369      C1429   1.437       .  S
C1369      N1390   1.348       .  A
N1370      N1583   1.321   1_554  A
N1371      C1397   1.341       .  A
N1371      N1580   1.321   1_554  A
N1371     Co1387   2.084       .  S
N1372      C1386   1.341       .  A
N1373      N1578   1.321       .  A
N1373      N1401   1.325       .  A
N1373     Co1391   2.084       .  S
H1374      C1397   1.081       .  S
H1375      C1392   1.081       .  S
N1376      N1577   1.321       .  A
N1377     Co1391   2.085       .  S
N1378      N1390   1.326       .  A
N1378     Co1387   2.091       .  S
C1379      C1393   1.455       .  S
C1379      C1402   1.435       .  S
C1379      N1590   1.347       .  A
C1380      C1606   1.457   1_554  S
C1380      H1384   1.081       .  S
N1381      C1392   1.341       .  A
N1381     Co1391   2.084       .  S
N1383      C1586   1.347   1_554  A
C1385      C1604   1.455       .  S
C1385      C1417   1.435       .  S
C1385      N1401   1.347       .  A
Co1387    Cl1605   2.454   1_554  S
N1388      C1399   1.348       .  A
C1389      C1410   1.438       .  S
C1389      N1567   1.347       .  A
Co1391    Cl1398   2.451       .  S
C1397      C1592   1.455       .  S
Cl1398    Co1594   2.454       .  S
C1399      C1587   1.457       .  S
C1399      C1406   1.441       .  S
C1402      C1403   1.205       .  T
C1403      C1404   1.412       .  S
C1404      C1405   1.205       .  T
C1406      C1407   1.209       .  T
C1407      C1408   1.417       .  S
C1408      C1409   1.209       .  T
C1410      C1411   1.207       .  T
C1411      C1412   1.414       .  S
C1412      C1413   1.207       .  T
C1414      C1415   1.205       .  T
C1415      C1416   1.411       .  S
C1416      C1417   1.205       .  T
C1418      C1419   1.207       .  T
C1419      C1420   1.414       .  S
C1420      C1421   1.207       .  T
C1422      C1423   1.205       .  T
C1424      C1425   1.205       .  T
C1426      C1427   1.206       .  T
C1427      C1428   1.413       .  S
C1428      C1429   1.206       .  T
C1430      C1431   1.205       .  T
C1432      C1433   1.206       .  T
C1434      C1435   1.209       .  T
C1436      C1437   1.208       .  T
C1438      C1439   1.205       .  T
C1439      C1440   1.411   1_455  S
C1440      C1441   1.205       .  T
C1442      C1443   1.206       .  T
C1444      C1445   1.206       .  T
C1446      C1447   1.206       .  T
C1447      C1448   1.412       .  S
C1448      C1449   1.206       .  T
C1450      C1487   1.455       .  S
C1450      C1656   1.436       .  S
N1451      N1468   1.325       .  A
N1451     Co1488   2.087       .  S
C1452      C1490   1.453   1_565  S
C1452      N1477   1.341       .  A
C1452      H1497   1.081       .  S
H1453      C1494   1.081       .  S
C1454      N1478   1.342       .  A
C1454      H1483   1.081       .  S
Co1455     N1473   2.083       .  S
Co1455     N1463   2.089       .  S
Co1455     N1495   2.088       .  S
Co1455     N1471   2.085       .  S
Co1455    Cl1499   2.454       .  S
N1456      C1494   1.341       .  A
N1456     Co1457   2.083       .  S
Co1457     N1460   2.081       .  S
Co1457     N1477   2.081       .  S
Co1457     N1464   2.083       .  S
C1458      C1652   1.436       .  S
C1458      N1496   1.346       .  A
N1459      N1489   1.325       .  A
N1459     Co1492   2.086       .  S
N1460      N1496   1.325       .  A
N1461      N1471   1.325       .  A
H1462      C1487   1.082       .  S
N1463      N1484   1.326       .  A
N1464      N1469   1.324       .  A
C1465      C1493   1.455       .  S
C1465      C1648   1.435       .  S
N1466      C1481   1.341       .  A
N1466     Co1488   2.086       .  S
C1467      N1495   1.342       .  A
C1467      H1501   1.081       .  S
C1470      C1641   1.441   1_455  S
C1470      N1491   1.349   1_455  A
N1472      C1498   1.341       .  A
N1472     Co1488   2.085       .  S
N1473      C1487   1.341       .  A
N1474      N1502   1.326       .  A
N1474     Co1492   2.090       .  S
H1475      C1498   1.081       .  S
H1476      C1493   1.081       .  S
N1478     Co1492   2.089       .  S
N1479      N1491   1.326       .  A
N1479     Co1488   2.091       .  S
C1480      C1633   1.437       .  S
C1480      N1484   1.348       .  A
C1481      C1500   1.454       .  S
C1481      H1485   1.081       .  S
N1482      C1493   1.342       .  A
N1482     Co1492   2.086       .  S
C1486      C1628   1.438       .  S
C1486      N1502   1.348   1_545  A
C1490      C1629   1.435       .  S
C1500      C1640   1.436       .  S
C1503      C1621   1.434       .  S
C1503      N1521   1.347   1_554  A
N1504      N1521   1.325       .  A
N1504     Co1541   2.083       .  S
C1505      C1543   1.455       .  S
C1505      N1530   1.342       .  A
C1505      H1550   1.081       .  S
H1506      C1547   1.081       .  S
C1507      C1511   1.457       .  S
C1507      N1531   1.343       .  A
C1507      H1536   1.081       .  S
Co1508     N1526   2.082       .  S
Co1508     N1516   2.084       .  S
Co1508     N1548   2.085       .  S
Co1508     N1524   2.083       .  S
N1509      C1547   1.342       .  A
N1509     Co1510   2.088       .  S
Co1510     N1513   2.090       .  S
Co1510     N1530   2.088       .  S
Co1510     N1517   2.088       .  S
C1511      C1616   1.441       .  S
N1512      N1542   1.326       .  A
N1512     Co1545   2.091       .  S
N1513      N1549   1.326       .  A
N1514      N1524   1.325       .  A
H1515      C1540   1.081       .  S
N1516      N1537   1.324       .  A
N1517      N1522   1.326       .  A
C1518      C1546   1.453       .  S
C1518      C1612   1.435       .  S
N1519      C1534   1.342       .  A
N1519     Co1541   2.087       .  S
C1520      N1548   1.342       .  A
C1520      H1554   1.081       .  S
C1523      C1620   1.438       .  S
C1523      N1544   1.348   1_554  A
N1525      C1551   1.341       .  A
N1525     Co1541   2.081       .  S
N1526      C1540   1.340       .  A
N1527      N1555   1.325       .  A
N1527     Co1545   2.088       .  S
H1528      C1551   1.081       .  S
H1529      C1546   1.081       .  S
N1531     Co1545   2.089       .  S
N1532      N1544   1.325       .  A
N1532     Co1541   2.088       .  S
C1533      C1653   1.436       .  S
C1533      N1537   1.346       .  A
C1534      C1553   1.455       .  S
C1534      H1538   1.082       .  S
N1535      C1546   1.341       .  A
N1535     Co1545   2.084       .  S
C1539      C1645   1.435       .  S
C1539      N1555   1.347   1_455  A
Co1541    Cl1552   2.453       .  S
C1543      C1649   1.436       .  S
C1553      C1644   1.441       .  S
C1556      C1593   1.454       .  S
C1556      C1637   1.436       .  S
N1557      N1574   1.325       .  A
N1557     Co1594   2.086       .  S
C1558      C1596   1.456       .  S
C1558      N1583   1.343       .  A
C1558      H1603   1.081       .  S
H1559      C1600   1.081       .  S
C1560      N1584   1.342       .  A
C1560      H1589   1.081       .  S
Co1561     N1579   2.082       .  S
Co1561     N1569   2.084       .  S
Co1561     N1601   2.083       .  S
Co1561     N1577   2.085       .  S
N1562      C1600   1.341       .  A
N1562     Co1563   2.085       .  S
Co1563     N1566   2.088       .  S
Co1563     N1583   2.088       .  S
Co1563     N1570   2.087       .  S
C1564      C1625   1.438       .  S
C1564      N1602   1.348   1_545  A
N1565      N1595   1.326       .  A
N1565     Co1598   2.087       .  S
N1566      N1602   1.326       .  A
N1567      N1577   1.325       .  A
H1568      C1593   1.081       .  S
N1569      N1590   1.325       .  A
N1570      N1575   1.325       .  A
C1571      C1599   1.454       .  S
C1571      C1632   1.435       .  S
N1572      C1587   1.343       .  A
N1572     Co1594   2.091       .  S
C1573      N1601   1.342       .  A
C1573      H1607   1.081       .  S
C1576      C1636   1.437       .  S
C1576      N1597   1.348       .  A
N1578      C1604   1.341       .  A
N1578     Co1594   2.084       .  S
N1579      C1593   1.341       .  A
N1580      N1608   1.325       .  A
N1580     Co1598   2.084       .  S
H1581      C1604   1.081       .  S
H1582      C1599   1.081       .  S
N1584     Co1598   2.085       .  S
N1585      N1597   1.326       .  A
N1585     Co1594   2.090       .  S
C1586      C1600   1.455       .  S
C1586      C1609   1.435       .  S
C1587      H1591   1.081       .  S
N1588      C1599   1.341       .  A
N1588     Co1598   2.084       .  S
C1592      C1624   1.435       .  S
C1592      N1608   1.347   1_554  A
N1595      C1606   1.348       .  A
C1596      C1617   1.438       .  S
Co1598    Cl1605   2.451       .  S
C1606      C1613   1.441       .  S
C1609      C1610   1.205       .  T
C1610      C1611   1.411       .  S
C1611      C1612   1.205       .  T
C1613      C1614   1.209       .  T
C1614      C1615   1.417       .  S
C1615      C1616   1.209       .  T
C1617      C1618   1.207       .  T
C1618      C1619   1.414   1_556  S
C1619      C1620   1.207       .  T
C1621      C1622   1.205       .  T
C1622      C1623   1.411       .  S
C1623      C1624   1.205       .  T
C1625      C1626   1.207       .  T
C1626      C1627   1.414       .  S
C1627      C1628   1.207       .  T
C1629      C1630   1.205       .  T
C1631      C1632   1.205       .  T
C1633      C1634   1.206       .  T
C1634      C1635   1.413       .  S
C1635      C1636   1.206       .  T
C1637      C1638   1.205       .  T
C1639      C1640   1.205       .  T
C1641      C1642   1.209       .  T
C1643      C1644   1.208       .  T
C1645      C1646   1.205       .  T
C1646      C1647   1.411   1_455  S
C1647      C1648   1.205       .  T
C1649      C1650   1.206       .  T
C1651      C1652   1.206       .  T
C1653      C1654   1.206       .  T
C1654      C1655   1.412       .  S
C1655      C1656   1.206       .  T
