geometry optimzed in LAMMPS
_audit_creation_date              2020-11-30 
_audit_creation_method            'lammps2cif' 
_symmetry_space_group_name_H-M    'P1' 
_symmetry_Int_Tables_number       1 
_symmetry_cell_setting            triclinic 
loop_ 
_symmetry_equiv_pos_as_xyz 
  x,y,z 
_cell_length_a                    38.02161804 
_cell_length_b                    107.81453573866766 
_cell_length_c                    44.07644090999923 
_cell_angle_alpha                 89.90398660526023 
_cell_angle_beta                  114.61254534181829 
_cell_angle_gamma                 90.02761073902255 
loop_ 
_atom_site_label 
_atom_site_type_symbol 
_atom_site_fract_x 
_atom_site_fract_y 
_atom_site_fract_z 
_atom_site_charge 
N1          N  0.96985179  0.56508541  0.79830951    -0.27400
N2          N  0.96202773  0.55801371  0.81921925    -0.35300
C3          C  0.98064384  0.54715945  0.82296792     0.00900
C4          C  0.00164896  0.54733844  0.80369370     0.06900
C5          C  0.99382422  0.55888228  0.78823804    -0.06200
H6          H  0.98030176  0.53996492  0.83994435     0.07600
H7          H  0.00626822  0.56279630  0.77232249     0.08800
Cu8        Cu  0.93276261  0.56400211  0.84695815     0.44200
Cu9        Cu  0.95039715  0.58324993  0.78722267     0.42000
Cu10       Cu  0.90418641  0.59600169  0.83770920     0.43900
N11         N  0.91650450  0.57319092  0.88030065    -0.34800
N12         N  0.90668772  0.58502377  0.87717480    -0.29100
C13         C  0.90428557  0.58884101  0.90525075    -0.05200
C14         C  0.91329164  0.57894737  0.92740684     0.07100
C15         C  0.92057764  0.56914705  0.91046378     0.00900
H16         H  0.89880908  0.59834075  0.90981259     0.08500
H17         H  0.93144582  0.56005814  0.92033838     0.07600
N18         N  0.90936258  0.60549752  0.79886013    -0.36300
N19         N  0.92652694  0.60092085  0.78071667    -0.28400
C20         C  0.92624682  0.60954851  0.75856350    -0.03700
C21         C  0.90803218  0.62013668  0.76289377     0.04900
C22         C  0.89771874  0.61715067  0.78875133     0.03000
H23         H  0.93890904  0.60817449  0.74095168     0.08100
H24         H  0.88361846  0.62305718  0.80010754     0.07000
N25         N  0.19917003  0.58059818  0.32920022    -0.27400
N26         N  0.17759473  0.57249584  0.30668272    -0.35300
C27         C  0.19699812  0.56175311  0.31129610     0.00900
C28         C  0.23273999  0.56311431  0.33797096     0.06900
C29         C  0.23306298  0.57522489  0.34868958    -0.06200
H30         H  0.18644042  0.55374993  0.29528229     0.07600
H31         H  0.25634759  0.57988386  0.36880853     0.08800
Cu32       Cu  0.12472646  0.57665407  0.26811932     0.44200
Cu33       Cu  0.18155744  0.59864275  0.33135630     0.42000
Cu34       Cu  0.09228500  0.60806384  0.26104460     0.43900
N35         N  0.07778805  0.58335353  0.22714024    -0.34800
N36         N  0.06619515  0.59500754  0.22411120    -0.29100
C37         C  0.03770971  0.59671940  0.19351412    -0.05200
C38         C  0.03114979  0.58558131  0.17627179     0.07100
C39         C  0.05711873  0.57732087  0.19858295     0.00900
H40         H  0.02431330  0.60558608  0.18403912     0.08500
H41         H  0.06191426  0.56774466  0.19411669     0.07600
N42         N  0.12160601  0.61879394  0.30288908    -0.36300
N43         N  0.15391959  0.61546802  0.32833502    -0.28400
C44         C  0.16389300  0.62435630  0.35180030    -0.03700
C45         C  0.13639577  0.63371059  0.34065575     0.04900
C46         C  0.11013783  0.62984253  0.30947930     0.03000
H47         H  0.18875248  0.62382615  0.37557238     0.08100
H48         H  0.08430580  0.63460852  0.29272993     0.07000
N49         N  0.83087737  0.75767275  0.60298265    -0.27400
N50         N  0.84764281  0.76586026  0.59084323    -0.35300
C51         C  0.82392346  0.77569426  0.57911956     0.00900
C52         C  0.79074326  0.77357511  0.58406313     0.06900
C53         C  0.79620378  0.76207547  0.59925705    -0.06200
H54         H  0.83021999  0.78373146  0.56751353     0.07600
H55         H  0.77632582  0.75719259  0.60685427     0.08800
Cu56       Cu  0.90147259  0.76324785  0.58949684     0.44200
Cu57       Cu  0.85430416  0.74059932  0.62323019     0.42000
Cu58       Cu  0.94353642  0.73307695  0.61950349     0.43900
N59         N  0.95352775  0.75727547  0.58901802    -0.34800
N60         N  0.96780651  0.74609853  0.59946842    -0.29100
C61         C  0.99881018  0.74426690  0.59289695    -0.05200
C62         C  0.00497524  0.75481556  0.57803701     0.07100
C63         C  0.97571157  0.76292528  0.57583876     0.00900
H64         H  0.01470413  0.73563732  0.59724501     0.08500
H65         H  0.96937203  0.77184775  0.56345225     0.07600
N66         N  0.91519127  0.72100889  0.63825922    -0.36300
N67         N  0.88215949  0.72375606  0.63979433    -0.28400
C68         C  0.87086969  0.71403012  0.65273488    -0.03700
C69         C  0.89822862  0.70465986  0.65975341     0.04900
C70         C  0.92591315  0.70948630  0.65016164     0.03000
H71         H  0.84467781  0.71386187  0.65672565     0.08100
H72         H  0.95178519  0.70496127  0.65125900     0.07000
N73         N  0.19987477  0.76365771  0.53052892    -0.27400
N74         N  0.18507755  0.77093249  0.54642848    -0.35300
C75         C  0.21023158  0.78023986  0.56075340     0.00900
C76         C  0.24206461  0.77866698  0.55340493     0.06900
C77         C  0.23440542  0.76809302  0.53422021    -0.06200
H78         H  0.20601354  0.78745576  0.57593832     0.07600
H79         H  0.25291033  0.76373869  0.52419993     0.08800
Cu80       Cu  0.13221759  0.76750520  0.54932146     0.44200
Cu81       Cu  0.17519596  0.74760517  0.50543644     0.42000
Cu82       Cu  0.08908634  0.73832450  0.50971092     0.43900
N83         N  0.08129024  0.76015436  0.54967451    -0.34800
N84         N  0.06711647  0.74933730  0.53583154    -0.29100
C85         C  0.03712768  0.74626517  0.54277508    -0.05200
C86         C  0.03139172  0.75561058  0.56147242     0.07100
C87         C  0.05983707  0.76434193  0.56548189     0.00900
H88         H  0.02138632  0.73761343  0.53561066     0.08500
H89         H  0.06599347  0.77266775  0.58047724     0.07600
N90         N  0.11420124  0.72817423  0.48447620    -0.36300
N91         N  0.14658757  0.73165093  0.48285344    -0.28400
C92         C  0.15666593  0.72314377  0.46572028    -0.03700
C93         C  0.12912060  0.71377397  0.45602447     0.04900
C94         C  0.10256724  0.71734637  0.46841543     0.03000
H95         H  0.18244373  0.72374278  0.46117853     0.08100
H96         H  0.07710863  0.71237886  0.46670016     0.07000
N97         N  0.69447671  0.98366963  0.35466480    -0.27400
N98         N  0.67450178  0.99051546  0.32815908    -0.35300
C99         C  0.69692053  0.99978681  0.32596920     0.00900
C100        C  0.73294612  0.99882130  0.35245768     0.06900
C101        C  0.73023983  0.98850821  0.37028291    -0.06200
H102        H  0.68784321  0.00650493  0.30590492     0.07600
H103        H  0.75313426  0.98443370  0.39196596     0.08800
Cu104      Cu  0.61932059  0.98622952  0.29375893     0.44200
Cu105      Cu  0.67266373  0.96737584  0.36566474     0.42000
Cu106      Cu  0.57711195  0.95763068  0.30370431     0.43900
N107        N  0.56932856  0.97890341  0.25750801    -0.34800
N108        N  0.55392660  0.96827514  0.26062884    -0.29100
C109        C  0.52581065  0.96514385  0.23085809    -0.05200
C110        C  0.52355516  0.97422962  0.20769465     0.07100
C111        C  0.55152110  0.98284783  0.22584770     0.00900
H112        H  0.51034122  0.95643704  0.22608581     0.08500
H113        H  0.56068312  0.99091801  0.21648006     0.07600
N114        N  0.60945001  0.94794964  0.34717693    -0.36300
N115        N  0.64412908  0.95131074  0.36928203    -0.28400
C116        C  0.65750471  0.94260693  0.39334089    -0.03700
C117        C  0.62991057  0.93332025  0.38615876     0.04900
C118        C  0.59983398  0.93708292  0.35667621     0.03000
H119        H  0.68540748  0.94302778  0.41440799     0.08100
H120        H  0.57328971  0.93213329  0.34247924     0.07000
N121        N  0.50172428  0.98030337  0.83319557    -0.27400
N122        N  0.49433936  0.98721902  0.85459257    -0.35300
C123        C  0.51199078  0.99825256  0.85763345     0.00900
C124        C  0.53183423  0.99825261  0.83745911     0.06900
C125        C  0.52450880  0.98671793  0.82226578    -0.06200
H126        H  0.51280506  0.00535261  0.87522947     0.07600
H127        H  0.53636511  0.98299818  0.80573249     0.08800
Cu128      Cu  0.46748153  0.98060433  0.88377384     0.44200
Cu129      Cu  0.48574785  0.96184046  0.82356086     0.42000
Cu130      Cu  0.45576096  0.94753209  0.88338190     0.43900
N131        N  0.45169740  0.97121862  0.91726007    -0.34800
N132        N  0.44831542  0.95903814  0.91762441    -0.29100
C133        C  0.44285798  0.95568648  0.94473841    -0.05200
C134        C  0.44288930  0.96629608  0.96248909     0.07100
C135        C  0.44841946  0.97596435  0.94411322     0.00900
H136        H  0.44081432  0.94617486  0.95165451     0.08500
H137        H  0.45262486  0.98566103  0.95091383     0.07600
N138        N  0.46348870  0.93793363  0.84614847    -0.36300
N139        N  0.47318443  0.94312422  0.82353948    -0.28400
C140        C  0.47378259  0.93434317  0.80210484    -0.03700
C141        C  0.46426335  0.92307752  0.81193512     0.04900
C142        C  0.45803178  0.92573750  0.83998353     0.03000
H143        H  0.48071540  0.93605574  0.78102622     0.08100
H144        H  0.44895496  0.91937148  0.85432819     0.07000
N145        N  0.71676528  0.79773539  0.55675398    -0.27400
N146        N  0.69908969  0.78916530  0.56691407    -0.35300
C147        C  0.72262045  0.77926497  0.57806910     0.00900
C148        C  0.75661381  0.78170845  0.57475001     0.06900
C149        C  0.75184313  0.79348274  0.56112454    -0.06200
H150        H  0.71553225  0.77092761  0.58802770     0.07600
H151        H  0.77246811  0.79864915  0.55506125     0.08800
Cu152      Cu  0.64412932  0.79122386  0.56624985     0.44200
Cu153      Cu  0.69363732  0.81504462  0.53789375     0.42000
Cu154      Cu  0.59977902  0.82081979  0.53498954     0.43900
N155        N  0.59072399  0.79652215  0.56502463    -0.34800
N156        N  0.57502776  0.80745125  0.55351484    -0.29100
C157        C  0.54268348  0.80877340  0.55841766    -0.05200
C158        C  0.53729738  0.79813705  0.57336046     0.07100
C159        C  0.56843649  0.79056708  0.57753980     0.00900
H160        H  0.52542672  0.81714034  0.55307149     0.08500
H161        H  0.57553927  0.78174371  0.59040736     0.07600
N162        N  0.62918639  0.83360855  0.51934038    -0.36300
N163        N  0.66388146  0.83159579  0.52032916    -0.28400
C164        C  0.67490093  0.84169404  0.50848023    -0.03700
C165        C  0.64564032  0.85053010  0.49962097     0.04900
C166        C  0.61715452  0.84498863  0.50694730     0.03000
H167        H  0.70227398  0.84249886  0.50661262     0.08100
H168        H  0.58941879  0.84882378  0.50331900     0.07000
N169        N  0.32371066  0.79954214  0.59274817    -0.27400
N170        N  0.33752392  0.79223865  0.57616871    -0.35300
C171        C  0.31013708  0.78391434  0.55889078     0.00900
C172        C  0.27778545  0.78607310  0.56506697     0.06900
C173        C  0.28739254  0.79605809  0.58654233    -0.06200
H174        H  0.31397813  0.77659285  0.54379133     0.07600
H175        H  0.26978805  0.80026671  0.59769028     0.08800
Cu176      Cu  0.39399281  0.79315460  0.57968546     0.44200
Cu177      Cu  0.35489360  0.81337412  0.62512296     0.42000
Cu178      Cu  0.45624796  0.81326023  0.64530147     0.43900
N179        N  0.45253816  0.79573737  0.59083660    -0.34800
N180        N  0.47515581  0.80291666  0.61555986    -0.29100
C181        C  0.50992756  0.80384279  0.61467048    -0.05200
C182        C  0.50961450  0.79680474  0.58844010     0.07100
C183        C  0.47262189  0.79188819  0.57357077     0.00900
H184        H  0.53266931  0.81004290  0.63019679     0.08500
H185        H  0.46031291  0.78675255  0.55042298     0.07600
N186        N  0.43077091  0.82542076  0.66631709    -0.36300
N187        N  0.39317415  0.82579173  0.65802392    -0.28400
C188        C  0.38527812  0.83545358  0.67341858    -0.03700
C189        C  0.41973685  0.84139648  0.69251084     0.04900
C190        C  0.44795235  0.83475800  0.68742962     0.03000
H191        H  0.35655590  0.83803651  0.67051751     0.08100
H192        H  0.47848037  0.83689754  0.69704377     0.07000
N193        N  0.77451329  0.07770840  0.87139496    -0.27400
N194        N  0.79864141  0.06959183  0.89222914    -0.35300
C195        C  0.77961048  0.05896713  0.89083979     0.00900
C196        C  0.74143700  0.06036993  0.86802211     0.06900
C197        C  0.73941447  0.07241977  0.85617983    -0.06200
H198        H  0.79269730  0.05096276  0.90618308     0.07600
H199        H  0.71430526  0.07711804  0.83810169     0.08800
Cu200      Cu  0.85554079  0.07331208  0.92423493     0.44200
Cu201      Cu  0.79017437  0.09563447  0.86458899     0.42000
Cu202      Cu  0.88939819  0.10355648  0.91872057     0.43900
N203        N  0.90685123  0.08035914  0.95963445    -0.34800
N204        N  0.91865614  0.09176443  0.95811953    -0.29100
C205        C  0.94862381  0.09449873  0.98711401    -0.05200
C206        C  0.95624349  0.08426046  0.00789220     0.07100
C207        C  0.92929655  0.07544224  0.98951648     0.00900
H208        H  0.96229542  0.10350871  0.99324294     0.08500
H209        H  0.92407234  0.06655674  0.99832286     0.07600
N210        N  0.85375384  0.11438471  0.87924856    -0.36300
N211        N  0.81707361  0.11190263  0.86016407    -0.28400
C212        C  0.80259928  0.12101160  0.83732899    -0.03700
C213        C  0.83185356  0.12949804  0.84212197     0.04900
C214        C  0.86375540  0.12497601  0.86892405     0.03000
H215        H  0.77338554  0.12121966  0.81804470     0.08100
H216        H  0.89223674  0.12910418  0.88031883     0.07000
N217        N  0.00971418  0.06402890  0.38790227    -0.27400
N218        N  0.01259526  0.05735436  0.36396243    -0.35300
C219        C  0.98922478  0.04744242  0.35788718     0.00900
C220        C  0.97035790  0.04789370  0.37891018     0.06900
C221        C  0.98446384  0.05853851  0.39777262    -0.06200
H222        H  0.98465614  0.04086876  0.33810936     0.07600
H223        H  0.97500353  0.06255120  0.41557992     0.08800
Cu224      Cu  0.04137954  0.06337727  0.33579928     0.44200
Cu225      Cu  0.03455216  0.08138741  0.40144296     0.42000
Cu226      Cu  0.07279276  0.09542704  0.34634773     0.43900
N227        N  0.05829236  0.07277417  0.30307595    -0.34800
N228        N  0.06896625  0.08453426  0.30639534    -0.29100
C229        C  0.07185910  0.08829774  0.27840906    -0.05200
C230        C  0.06224728  0.07844420  0.25617235     0.07100
C231        C  0.05414032  0.06873781  0.27297888     0.00900
H232        H  0.07772916  0.09776228  0.27380123     0.08500
H233        H  0.04351840  0.05960948  0.26344546     0.07600
N234        N  0.06953324  0.10446263  0.38656726    -0.36300
N235        N  0.05578021  0.09931199  0.40660634    -0.28400
C236        C  0.05629251  0.10770770  0.42925398    -0.03700
C237        C  0.07110593  0.11875570  0.42331167     0.04900
C238        C  0.07918089  0.11629121  0.39595446     0.03000
H239        H  0.04581451  0.10587044  0.44815671     0.08100
H240        H  0.09071979  0.12261270  0.38333249     0.07000
N241        N  0.15475906  0.25374621  0.59493946    -0.27400
N242        N  0.13771024  0.26213404  0.60620555    -0.35300
C243        C  0.16148647  0.27200210  0.61717231     0.00900
C244        C  0.19481823  0.26967123  0.61250615     0.06900
C245        C  0.18941288  0.25803510  0.59831849    -0.06200
H246        H  0.15515211  0.28021128  0.62807183     0.07600
H247        H  0.20942692  0.25293820  0.59136170     0.08800
Cu248      Cu  0.08319582  0.25966160  0.60712275     0.44200
Cu249      Cu  0.13211275  0.23655975  0.57612857     0.42000
Cu250      Cu  0.03927928  0.23011329  0.57326870     0.43900
N251        N  0.03014437  0.25366695  0.60641456    -0.34800
N252        N  0.01520015  0.24270640  0.59439652    -0.29100
C253        C  0.98356359  0.24075729  0.60004058    -0.05200
C254        C  0.97753755  0.25102424  0.61586810     0.07100
C255        C  0.00763538  0.25907070  0.61965936     0.00900
H256        H  0.96686444  0.23226929  0.59404847     0.14900
H257        H  0.01393991  0.26783509  0.63276349     0.07600
N258        N  0.06873162  0.21780103  0.55646123    -0.36300
N259        N  0.10346053  0.22007216  0.55787810    -0.28400
C260        C  0.11527635  0.21022674  0.54589154    -0.03700
C261        C  0.08642531  0.20126676  0.53639637     0.04900
C262        C  0.05733755  0.20647247  0.54351275     0.03000
H263        H  0.14290608  0.20969189  0.54440522     0.08100
H264        H  0.02978364  0.20242088  0.53962623     0.07000
N265        N  0.76393203  0.25645617  0.63443785    -0.27400
N266        N  0.78158215  0.26430083  0.62226565    -0.35300
C267        C  0.75666142  0.27354350  0.60645988     0.00900
C268        C  0.72197035  0.27134188  0.60902434     0.06900
C269        C  0.72779589  0.26044425  0.62690126    -0.06200
H270        H  0.76334650  0.28130989  0.59420334     0.07600
H271        H  0.70733756  0.25574197  0.63414996     0.08800
Cu272      Cu  0.83891769  0.26174951  0.62808320     0.44200
Cu273      Cu  0.78860688  0.24070422  0.66158555     0.42000
Cu274      Cu  0.88673514  0.23463912  0.67936913     0.43900
N275        N  0.89443744  0.25547793  0.63590065    -0.34800
N276        N  0.91067440  0.24549795  0.65382580    -0.29100
C277        C  0.94360370  0.24294170  0.65072204    -0.05200
C278        C  0.94912486  0.25182044  0.63052482     0.07100
C279        C  0.91733381  0.25962213  0.62139967     0.00900
H280        H  0.96137400  0.23484491  0.66118696     0.08500
H281        H  0.90998571  0.26717453  0.60363026     0.07600
N282        N  0.85541538  0.22390865  0.69857048    -0.36300
N283        N  0.81842513  0.22594740  0.69077795    -0.28400
C284        C  0.80492070  0.21708090  0.70458381    -0.03700
C285        C  0.83501927  0.20909026  0.72223670     0.04900
C286        C  0.86669334  0.21373778  0.71799021     0.03000
H287        H  0.77534927  0.21649963  0.70187019     0.08100
H288        H  0.89539761  0.20976083  0.72723861     0.07000
N289        N  0.47026143  0.48358824  0.36800620    -0.27400
N290        N  0.47483109  0.49094993  0.34591100    -0.35300
C291        C  0.45662754  0.50174290  0.34461275     0.00900
C292        C  0.43945352  0.50117515  0.36680426     0.06900
C293        C  0.44871414  0.48949429  0.38119383    -0.06200
H294        H  0.45436845  0.50918981  0.32741893     0.07600
H295        H  0.43977880  0.48545609  0.39934345     0.08800
Cu296      Cu  0.50140875  0.48562038  0.31540354     0.44200
Cu297      Cu  0.49172777  0.46560817  0.37751724     0.42000
Cu298      Cu  0.54067956  0.45484042  0.32683219     0.43900
N299        N  0.52228283  0.47753212  0.28355129    -0.34800
N300        N  0.53649902  0.46617263  0.28766441    -0.29100
C301        C  0.54253816  0.46298481  0.26075169    -0.05200
C302        C  0.53154306  0.47282777  0.23846632     0.07100
C303        C  0.51904901  0.48191437  0.25394723     0.00900
H304        H  0.55216991  0.45391122  0.25701146     0.08500
H305        H  0.50569190  0.49068309  0.24340721     0.07600
N306        N  0.53461838  0.44435211  0.36361405    -0.36300
N307        N  0.51612440  0.44810820  0.38154592    -0.28400
C308        C  0.51571421  0.43880897  0.40175695    -0.03700
C309        C  0.53501231  0.42872783  0.39636674     0.04900
C310        C  0.54662603  0.43261776  0.37202625     0.03000
H311        H  0.50240233  0.43939583  0.41913259     0.08100
H312        H  0.56179325  0.42723762  0.36053890     0.07000
N313        N  0.26847479  0.47733653  0.83558578    -0.27400
N314        N  0.28685598  0.48466320  0.86138998    -0.35300
C315        C  0.26318691  0.49385455  0.86151352     0.00900
C316        C  0.22797677  0.49235044  0.83443976     0.06900
C317        C  0.23241822  0.48180498  0.81832807    -0.06200
H318        H  0.27083307  0.50090183  0.88063700     0.07600
H319        H  0.21049403  0.47734994  0.79676097     0.08800
Cu320      Cu  0.34133247  0.48130116  0.89823932     0.44200
Cu321      Cu  0.29298607  0.46098889  0.82804759     0.42000
Cu322      Cu  0.38657173  0.45271096  0.89664866     0.43900
N323        N  0.39004850  0.47498747  0.93793362    -0.34800
N324        N  0.40659429  0.46424565  0.93789830    -0.29100
C325        C  0.43384909  0.46196461  0.96877666    -0.05200
C326        C  0.43434207  0.47176789  0.98939764     0.07100
C327        C  0.40620803  0.47987372  0.96866520     0.00900
H328        H  0.45025380  0.45344139  0.97596269     0.08500
H329        H  0.39632481  0.48836573  0.97554163     0.07600
N330        N  0.35854039  0.44229934  0.85380606    -0.36300
N331        N  0.32488909  0.44512156  0.82920406    -0.28400
C332        C  0.31486042  0.43598476  0.80636276    -0.03700
C333        C  0.34353295  0.42694292  0.81707393     0.04900
C334        C  0.37074677  0.43136103  0.84726949     0.03000
H335        H  0.28819348  0.43588321  0.78397616     0.08100
H336        H  0.39731952  0.42692484  0.86384640     0.07000
N337        N  0.27098224  0.29300810  0.64245559    -0.27400
N338        N  0.28714920  0.28496259  0.62945717    -0.35300
C339        C  0.26243516  0.27542080  0.61657943     0.00900
C340        C  0.22934089  0.27763148  0.62171980     0.06900
C341        C  0.23586402  0.28885603  0.63813525    -0.06200
H342        H  0.26814700  0.26746357  0.60439890     0.07600
H343        H  0.21665323  0.29364514  0.64664958     0.08800
Cu344      Cu  0.34199537  0.28745971  0.62938169     0.44200
Cu345      Cu  0.29628260  0.30929404  0.66631737     0.42000
Cu346      Cu  0.39064236  0.31541981  0.67256242     0.43900
N347        N  0.39510441  0.29368122  0.63085442    -0.34800
N348        N  0.41179075  0.30403111  0.64625360    -0.29100
C349        C  0.44250966  0.30652107  0.63966413    -0.05200
C350        C  0.44612024  0.29722419  0.61968925     0.07100
C351        C  0.41553035  0.28921351  0.61443198     0.00900
H352        H  0.45996245  0.31482200  0.64762418     0.08500
H353        H  0.40719534  0.28125398  0.59803342     0.07600
N354        N  0.36252125  0.32707049  0.69246554    -0.36300
N355        N  0.32711814  0.32493621  0.68961233    -0.28400
C356        C  0.31557460  0.33453567  0.70267309    -0.03700
C357        C  0.34526296  0.34320020  0.71435816     0.04900
C358        C  0.37462556  0.33806935  0.70748785     0.03000
H359        H  0.28739919  0.33518064  0.70308174     0.08100
H360        H  0.40224648  0.34218449  0.71182908     0.07000
N361        N  0.64356890  0.29381222  0.57238244    -0.27400
N362        N  0.62791832  0.28612346  0.58677495    -0.35300
C363        C  0.65324764  0.27691218  0.60151558     0.00900
C364        C  0.68636273  0.27892326  0.59633860     0.06900
C365        C  0.67916106  0.28971505  0.57776503    -0.06200
H366        H  0.64819604  0.26942651  0.61558345     0.07600
H367        H  0.69851872  0.29435715  0.56911364     0.08800
Cu368      Cu  0.57382764  0.28864948  0.58816132     0.44200
Cu369      Cu  0.61739124  0.30988341  0.54700221     0.42000
Cu370      Cu  0.52826417  0.31733484  0.55245249     0.43900
N371        N  0.52205316  0.29461620  0.58969612    -0.34800
N372        N  0.50638282  0.30543163  0.57705064    -0.29100
C373        C  0.47615851  0.30761033  0.58455607    -0.05200
C374        C  0.47187217  0.29761443  0.60231676     0.07100
C375        C  0.50153040  0.28951827  0.60528647     0.00900
H376        H  0.45937023  0.31608291  0.57857050     0.08500
H377        H  0.50909627  0.28098477  0.61950748     0.07600
N378        N  0.55383729  0.32863805  0.52958829    -0.36300
N379        N  0.58610597  0.32588588  0.52660311    -0.28400
C380        C  0.59510689  0.33532926  0.51105555    -0.03700
C381        C  0.56734509  0.34449083  0.50449799     0.04900
C382        C  0.54168611  0.33991466  0.51655130     0.03000
H383        H  0.62073342  0.33571819  0.50620088     0.08100
H384        H  0.51622555  0.34449973  0.51623077     0.07000
C385        C  0.37431115  0.39481839  0.80229693    -0.11000
C386        C  0.34460868  0.39161007  0.77138410     0.06200
C387        C  0.31487115  0.40021419  0.75518551    -0.09700
C388        C  0.31469692  0.41172548  0.76974719    -0.11400
C389        C  0.34421042  0.41489197  0.80091328    -0.01200
C390        C  0.37414340  0.40629628  0.81685961    -0.10300
C391        C  0.34458729  0.37927286  0.75639974     0.06200
H392        H  0.29185662  0.39808046  0.73109859     0.08100
H393        H  0.29130812  0.41808677  0.75649958     0.11600
H394        H  0.39737940  0.40828672  0.84085744     0.11900
H395        H  0.39737347  0.38833612  0.81562768     0.08100
C396        C  0.37923293  0.37407456  0.75808747    -0.11000
C397        C  0.37944235  0.36236951  0.74462082    -0.10300
C398        C  0.34499675  0.35555824  0.72910658    -0.01200
C399        C  0.31031419  0.36076518  0.72742474    -0.11400
C400        C  0.31010925  0.37249536  0.74085463    -0.09800
H401        H  0.40622299  0.37911553  0.76959168     0.08200
H402        H  0.40675034  0.35867373  0.74659264     0.11900
H403        H  0.28317328  0.35585663  0.71553934     0.11600
H404        H  0.28301495  0.37618445  0.73951347     0.08100
C405        C  0.52227183  0.40055348  0.44208897    -0.11000
C406        C  0.55271810  0.39282372  0.44342515     0.06200
C407        C  0.57708273  0.39701350  0.42874973    -0.09700
C408        C  0.57117080  0.40863124  0.41325789    -0.11400
C409        C  0.54109770  0.41638311  0.41245893    -0.01200
C410        C  0.51673802  0.41222020  0.42704714    -0.10300
C411        C  0.55877399  0.38048103  0.46006395     0.06200
H412        H  0.60115655  0.39142395  0.42969670     0.08100
H413        H  0.59065745  0.41162712  0.40248041     0.11600
H414        H  0.49290384  0.41787619  0.42635378     0.11900
H415        H  0.50223261  0.39753857  0.45226458     0.08100
C416        C  0.55049373  0.37877150  0.48805945    -0.11000
C417        C  0.55364863  0.36708193  0.50251540    -0.10300
C418        C  0.56612270  0.35687936  0.48993143    -0.01200
C419        C  0.57604262  0.35857535  0.46292384    -0.11400
C420        C  0.57199884  0.37024985  0.44786101    -0.09800
H421        H  0.54145172  0.38646750  0.49886320     0.08200
H422        H  0.54650384  0.36602584  0.52373961     0.11900
H423        H  0.58557385  0.35079207  0.45275788     0.11600
H424        H  0.57823290  0.37115959  0.42613922     0.08100
C425        C  0.51333430  0.46177230  0.15165871    -0.11000
C426        C  0.50727225  0.47304368  0.13407510     0.06200
C427        C  0.51353825  0.48421201  0.15205080    -0.09700
C428        C  0.52292873  0.48412288  0.18622945    -0.11400
C429        C  0.52685685  0.47286864  0.20338457    -0.01200
C430        C  0.52324056  0.46168950  0.18597370    -0.10300
C431        C  0.49136217  0.47317981  0.09695904     0.06200
H432        H  0.51032073  0.49306885  0.13956970     0.08100
H433        H  0.52636337  0.49289292  0.19907553     0.11600
H434        H  0.52597142  0.45284445  0.19838448     0.11900
H435        H  0.50846550  0.45298730  0.13869477     0.08100
C436        C  0.50118970  0.46395020  0.07931334    -0.11000
C437        C  0.48347776  0.46363456  0.04438348    -0.10300
C438        C  0.45562222  0.47256608  0.02628827    -0.01200
C439        C  0.44681947  0.48199905  0.04399106    -0.11400
C440        C  0.46422160  0.48225486  0.07875639    -0.09800
H441        H  0.52241639  0.45691868  0.09247194     0.08200
H442        H  0.49140302  0.45630387  0.03170752     0.11900
H443        H  0.42556412  0.48904763  0.03125357     0.11600
H444        H  0.45520873  0.48935685  0.09134227     0.08100
C445        C  0.05530688  0.16894465  0.50170680    -0.11000
C446        C  0.08455610  0.16557510  0.49172463     0.06200
C447        C  0.11499237  0.17391842  0.49720124    -0.09700
C448        C  0.11588697  0.18544524  0.51200144    -0.11400
C449        C  0.08629881  0.18889592  0.52158796    -0.01200
C450        C  0.05617244  0.18044426  0.51646849    -0.10300
C451        C  0.08269624  0.15349858  0.47503505     0.06200
H452        H  0.13820827  0.17151283  0.49014022     0.08100
H453        H  0.13960590  0.19165783  0.51553541     0.11600
H454        H  0.03297027  0.18266418  0.52363845     0.11900
H455        H  0.03121882  0.16278119  0.49746955     0.08100
C456        C  0.07054907  0.14276361  0.48602509    -0.11000
C457        C  0.06714274  0.13149974  0.46945835    -0.10300
C458        C  0.07579211  0.13067949  0.44144706    -0.01200
C459        C  0.08849162  0.14140824  0.43076864    -0.11400
C460        C  0.09191804  0.15267918  0.44738436    -0.09800
H461        H  0.06379169  0.14305963  0.50757630     0.08200
H462        H  0.05763187  0.12347834  0.47874373     0.11900
H463        H  0.09537912  0.14121105  0.40932695     0.11600
H464        H  0.10090415  0.16082880  0.43807156     0.08100
C465        C  0.79611289  0.15891925  0.79130670    -0.11000
C466        C  0.83001429  0.16323953  0.78917393     0.06200
C467        C  0.86371997  0.15596886  0.80327027    -0.09700
C468        C  0.86401028  0.14498849  0.82012015    -0.11400
C469        C  0.83042977  0.14082603  0.82274364    -0.01200
C470        C  0.79624973  0.14775548  0.80766129    -0.10300
C471        C  0.83063095  0.17526910  0.77262693     0.06200
H472        H  0.89003068  0.15870939  0.80122339     0.08100
H473        H  0.89058393  0.13969342  0.83091252     0.11600
H474        H  0.76999891  0.14476121  0.80946885     0.11900
H475        H  0.76968627  0.16429326  0.78111567     0.08100
C476        C  0.79783394  0.17950545  0.74498906    -0.11000
C477        C  0.79900928  0.19063909  0.72910281    -0.10300
C478        C  0.83318499  0.19765613  0.74005130    -0.01200
C479        C  0.86582249  0.19354214  0.76775212    -0.11400
C480        C  0.86443303  0.18256922  0.78410739    -0.09800
H481        H  0.77147666  0.17409636  0.73505175     0.08200
H482        H  0.77349604  0.19355956  0.70759113     0.11900
H483        H  0.89234482  0.19888566  0.77700784     0.11600
H484        H  0.88993132  0.17985640  0.80588376     0.08100
C485        C  0.01549642  0.07133631  0.09385039    -0.11000
C486        C  0.02000608  0.08182220  0.11411039     0.06200
C487        C  0.00703577  0.09338814  0.09866673    -0.09700
C488        C  0.98817584  0.09430892  0.06392344    -0.11400
C489        C  0.98141741  0.08366293  0.04396756    -0.01200
C490        C  0.99604980  0.07222892  0.05917823    -0.10300
C491        C  0.03466826  0.08049602  0.15096319     0.06200
H492        H  0.00955424  0.10163322  0.11340883     0.08100
H493        H  0.97693625  0.10323654  0.05286599     0.11600
H494        H  0.99169871  0.06391861  0.04427487     0.11900
H495        H  0.02603192  0.06234501  0.10483575     0.08100
C496        C  0.02443714  0.07004628  0.16461121    -0.11000
C497        C  0.03469303  0.06919405  0.19881429    -0.10300
C498        C  0.05516238  0.07882651  0.22039311    -0.01200
C499        C  0.06660075  0.08910923  0.20697893    -0.11400
C500        C  0.05651010  0.08992785  0.17265143    -0.09800
H501        H  0.00698036  0.06270609  0.14871676     0.08200
H502        H  0.02511128  0.06114628  0.20793588     0.11900
H503        H  0.08287032  0.09662910  0.22284605     0.11600
H504        H  0.06543303  0.09801619  0.16306549     0.08100
C505        C  0.62015603  0.01275707  0.83288440    -0.11000
C506        C  0.61706171  0.02513560  0.84128425     0.06200
C507        C  0.58458285  0.02879373  0.84651946    -0.09700
C508        C  0.55642517  0.02010198  0.84463898    -0.11400
C509        C  0.55992582  0.00765386  0.83690893    -0.01200
C510        C  0.59171403  0.00412065  0.83044901    -0.10300
C511        C  0.64878759  0.03400904  0.84658305     0.06200
H512        H  0.58171199  0.03827700  0.85324126     0.08100
H513        H  0.53211970  0.02309161  0.84955691     0.11600
H514        H  0.59541950  0.99458655  0.82470773     0.11900
H515        H  0.64487409  0.00974057  0.82859444     0.08100
C516        C  0.68710848  0.03070460  0.86698237    -0.11000
C517        C  0.71711582  0.03919251  0.87355267    -0.10300
C518        C  0.70955622  0.05119703  0.85973391    -0.01200
C519        C  0.67115174  0.05438957  0.83867048    -0.11400
C520        C  0.64105193  0.04590110  0.83232923    -0.09800
H521        H  0.69375351  0.02161696  0.87850676     0.08200
H522        H  0.74613878  0.03629397  0.88972094     0.11900
H523        H  0.66406610  0.06349282  0.82743167     0.11600
H524        H  0.61169840  0.04862004  0.81631642     0.08100
C525        C  0.46689286  0.86648215  0.75636290    -0.11000
C526        C  0.43822917  0.87567814  0.74599892     0.06200
C527        C  0.40269988  0.87336004  0.71894711    -0.09700
C528        C  0.39609323  0.86201743  0.70218509    -0.11400
C529        C  0.42528866  0.85295928  0.71180319    -0.01200
C530        C  0.46062697  0.85525606  0.73917440    -0.10300
C531        C  0.44574783  0.88777583  0.76298649     0.06200
H532        H  0.38018272  0.88035005  0.71078170     0.08100
H533        H  0.36867254  0.86050409  0.68106534     0.11600
H534        H  0.48345923  0.84837942  0.74724961     0.11900
H535        H  0.49447106  0.86812802  0.77721870     0.08100
C536        C  0.45630791  0.88842302  0.79743084    -0.11000
C537        C  0.46273520  0.89991173  0.81340223    -0.10300
C538        C  0.45935691  0.91092199  0.79526006    -0.01200
C539        C  0.44981172  0.91021485  0.76090550    -0.11400
C540        C  0.44266891  0.89872821  0.74483173    -0.09800
H541        H  0.45892900  0.88004490  0.81181876     0.08200
H542        H  0.47044426  0.90016381  0.83996510     0.11900
H543        H  0.44683295  0.91854040  0.74627708     0.11600
H544        H  0.43487936  0.89836706  0.71824511     0.08100
C545        C  0.80435828  0.01913672  0.33590172    -0.11000
C546        C  0.83544799  0.01977161  0.36753110     0.06200
C547        C  0.83202483  0.01383910  0.39460631    -0.09700
C548        C  0.79860608  0.00710482  0.38985732    -0.11400
C549        C  0.76780043  0.00632434  0.35806385    -0.01200
C550        C  0.77091166  0.01253760  0.33123949    -0.10300
C551        C  0.87141648  0.02643380  0.37180952     0.06200
H552        H  0.85556053  0.01414562  0.41925588     0.08100
H553        H  0.79690924  0.00249674  0.41104633     0.11600
H554        H  0.74788850  0.01208193  0.30637633     0.11900
H555        H  0.80589742  0.02376899  0.31466661     0.08100
C556        C  0.88661634  0.02514945  0.34789291    -0.11000
C557        C  0.91930681  0.03182631  0.35073476    -0.10300
C558        C  0.93760863  0.04001924  0.37752307    -0.01200
C559        C  0.92303212  0.04103681  0.40200358    -0.11400
C560        C  0.89033219  0.03429580  0.39920328    -0.09800
H561        H  0.87307682  0.01898775  0.32681263     0.08200
H562        H  0.92950444  0.03073088  0.33137687     0.11900
H563        H  0.93651919  0.04714217  0.42317118     0.11600
H564        H  0.87922281  0.03549001  0.41799188     0.08100
C565        C  0.60177487  0.90340537  0.41591105    -0.11000
C566        C  0.63782537  0.89884195  0.43855036     0.06200
C567        C  0.67115331  0.90590066  0.44452513    -0.09700
C568        C  0.66854405  0.91717393  0.42794667    -0.11400
C569        C  0.63256885  0.92162312  0.40484613    -0.01200
C570        C  0.59918395  0.91464066  0.39921681    -0.10300
C571        C  0.64064741  0.88664774  0.45527634     0.06200
H572        H  0.69929755  0.90271917  0.46212174     0.08100
H573        H  0.69487498  0.92226715  0.43284189     0.11600
H574        H  0.57095020  0.91782115  0.38186238     0.11900
H575        H  0.57558067  0.89814652  0.41050706     0.08100
C576        C  0.61286149  0.88310807  0.46688933    -0.11000
C577        C  0.61474682  0.87147618  0.48155670    -0.10300
C578        C  0.64444324  0.86305431  0.48495687    -0.01200
C579        C  0.67255716  0.86667899  0.47375340    -0.11400
C580        C  0.67067646  0.87832867  0.45910385    -0.09800
H581        H  0.58971733  0.88937530  0.46481468     0.08200
H582        H  0.59282417  0.86915127  0.49023010     0.11900
H583        H  0.69573851  0.86046866  0.47572116     0.11600
H584        H  0.69227063  0.88070857  0.45003788     0.08100
C585        C  0.45910710  0.95788673  0.05090517    -0.11000
C586        C  0.45639481  0.96955959  0.06393499     0.06200
C587        C  0.44476705  0.97980750  0.04225831    -0.09700
C588        C  0.43861959  0.97860218  0.00891081    -0.11400
C589        C  0.44379309  0.96710917  0.99637825    -0.01200
C590        C  0.45277749  0.95666599  0.01743440    -0.10300
C591        C  0.46946326  0.97130538  0.10044159     0.06200
H592        H  0.44147154  0.98886545  0.05133282     0.08100
H593        H  0.43076546  0.98677634  0.99321413     0.11600
H594        H  0.45694487  0.94765808  0.00867082     0.11900
H595        H  0.46825118  0.94981956  0.06697760     0.08100
C596        C  0.46210939  0.96233967  0.12025222    -0.11000
C597        C  0.47821316  0.96352156  0.15504819    -0.10300
C598        C  0.50217514  0.97366852  0.17076062    -0.01200
C599        C  0.50785129  0.98290006  0.15067410    -0.11400
C600        C  0.49193135  0.98169779  0.11607195    -0.09800
H601        H  0.44442570  0.95431245  0.10888414     0.08200
H602        H  0.47264314  0.95629738  0.16951836     0.11900
H603        H  0.52568022  0.99092422  0.16148631     0.11600
H604        H  0.49865455  0.98870193  0.10166235     0.08100
C605        C  0.33353509  0.54921453  0.37572338    -0.11000
C606        C  0.32586277  0.53670246  0.36637962     0.06200
C607        C  0.28723421  0.53280688  0.34997617    -0.09700
C608        C  0.25702460  0.54133516  0.34174865    -0.11400
C609        C  0.26469134  0.55394383  0.34984111    -0.01200
C610        C  0.30325136  0.55774791  0.36768233    -0.10300
C611        C  0.35776854  0.52793679  0.37093178     0.06200
H612        H  0.28038903  0.52325484  0.34218090     0.08100
H613        H  0.22765349  0.53805573  0.32844740     0.11600
H614        H  0.31021615  0.56738137  0.37432829     0.11900
H615        H  0.36304537  0.55244417  0.38865980     0.08100
C616        C  0.38813751  0.53161095  0.36265827    -0.11000
C617        C  0.41543197  0.52298228  0.36248168    -0.10300
C618        C  0.41317795  0.51051793  0.37082838    -0.01200
C619        C  0.38403884  0.50696755  0.38083723    -0.11400
C620        C  0.35645699  0.51558469  0.38068854    -0.09800
H621        H  0.38976243  0.54103155  0.35477575     0.08200
H622        H  0.43784455  0.52603028  0.35507648     0.11900
H623        H  0.38149237  0.49743243  0.38737774     0.11600
H624        H  0.33355953  0.51253102  0.38748585     0.08100
C625        C  0.09858648  0.68269425  0.41277413    -0.11000
C626        C  0.13081337  0.67950438  0.40661402     0.06200
C627        C  0.16193358  0.68783090  0.41584305    -0.09700
C628        C  0.16114826  0.69902540  0.43139467    -0.11400
C629        C  0.12921034  0.70214882  0.43812929    -0.01200
C630        C  0.09776921  0.69389259  0.42831593    -0.10300
C631        C  0.13195658  0.66756347  0.39047334     0.06200
H632        H  0.18685747  0.68572148  0.41084215     0.08100
H633        H  0.18587121  0.70511514  0.43840299     0.11600
H634        H  0.07251564  0.69597493  0.43277468     0.11900
H635        H  0.07425449  0.67642603  0.40611503     0.08100
C636        C  0.16623918  0.66057625  0.40151714    -0.11000
C637        C  0.16760143  0.64950303  0.38564035    -0.10300
C638        C  0.13473437  0.64520857  0.35832302    -0.01200
C639        C  0.10026971  0.65209310  0.34771586    -0.11400
C640        C  0.09889864  0.66314151  0.36361974    -0.09800
H641        H  0.19201394  0.66366160  0.42251175     0.08200
H642        H  0.19460933  0.64444369  0.39447221     0.11900
H643        H  0.07423613  0.64899464  0.32707422     0.11600
H644        H  0.07213631  0.66836080  0.35442033     0.08100
C645        C  0.07733034  0.53062284  0.78333004    -0.11000
C646        C  0.09101449  0.52170433  0.80890706     0.06200
C647        C  0.07294087  0.52064639  0.83081403    -0.09700
C648        C  0.04315633  0.52868372  0.82832696    -0.11400
C649        C  0.03059784  0.53803999  0.80385870    -0.01200
C650        C  0.04747110  0.53874769  0.78089127    -0.10300
C651        C  0.12576045  0.51410033  0.81461913     0.06200
H652        H  0.08242759  0.51371879  0.85042177     0.08100
H653        H  0.03101789  0.52774733  0.84644611     0.11600
H654        H  0.03823158  0.54572427  0.76145566     0.11900
H655        H  0.09077524  0.53165001  0.76610880     0.08100
C656        C  0.13093105  0.50832542  0.78816602    -0.11000
C657        C  0.16392016  0.50108138  0.79443535    -0.10300
C658        C  0.19252605  0.49972638  0.82714665    -0.01200
C659        C  0.18732433  0.50559074  0.85339432    -0.11400
C660        C  0.15437069  0.51264603  0.84723132    -0.09800
H661        H  0.10925907  0.50927684  0.76279038     0.08200
H662        H  0.16732449  0.49669253  0.77374225     0.11900
H663        H  0.20857180  0.50463027  0.87891485     0.11600
H664        H  0.15149595  0.51711525  0.86807264     0.08100
C665        C  0.93099628  0.67288360  0.69842018    -0.11000
C666        C  0.89762728  0.66829451  0.70077596     0.06200
C667        C  0.86444077  0.67581900  0.68981624    -0.09700
C668        C  0.86459748  0.68762332  0.67658920    -0.11400
C669        C  0.89795089  0.69217798  0.67403779    -0.01200
C670        C  0.93115847  0.68465347  0.68521056    -0.10300
C671        C  0.89788119  0.65575567  0.71497469     0.06200
H672        H  0.83815189  0.67250815  0.69100328     0.08100
H673        H  0.83838101  0.69308765  0.66804458     0.11600
H674        H  0.95757562  0.68785738  0.68414765     0.11900
H675        H  0.95730124  0.66743360  0.70728217     0.08100
C676        C  0.91713382  0.64587382  0.70765291    -0.11000
C677        C  0.91967357  0.63427768  0.72260026    -0.10300
C678        C  0.90302581  0.63224220  0.74530983    -0.01200
C679        C  0.88261644  0.64202817  0.75176712    -0.11400
C680        C  0.88008122  0.65364320  0.73677774    -0.09800
H681        H  0.93047600  0.64712391  0.69042472     0.08200
H682        H  0.93535219  0.62701404  0.71666489     0.11900
H683        H  0.86903004  0.64083923  0.76879070     0.11600
H684        H  0.86517337  0.66107668  0.74306438     0.08100
C685        C  0.93925894  0.59122747  0.01462577    -0.11000
C686        C  0.94605854  0.58024594  0.03347332     0.06200
C687        C  0.93843667  0.56881682  0.01656197    -0.09700
C688        C  0.92637959  0.56838756  0.98194746    -0.11400
C689        C  0.92135503  0.57937558  0.96338107    -0.01200
C690        C  0.92688590  0.59079882  0.98005146    -0.10300
C691        C  0.96409520  0.58077536  0.07063060     0.06200
H692        H  0.94246905  0.56017267  0.03013369     0.08100
H693        H  0.92169401  0.55942621  0.96987625     0.11600
H694        H  0.92350417  0.59946830  0.96676242     0.11900
H695        H  0.94532945  0.60020091  0.02669039     0.08100
C696        C  0.99201986  0.57195440  0.08923042    -0.11000
C697        C  0.01259105  0.57324897  0.12368852    -0.10300
C698        C  0.00609325  0.58346431  0.14044624    -0.01200
C699        C  0.97698730  0.59199159  0.12217866    -0.11400
C700        C  0.95609672  0.59062838  0.08770628    -0.09800
H701        H  0.99946490  0.56434592  0.07701889     0.08200
H702        H  0.03483319  0.56650972  0.13680486     0.11900
H703        H  0.97068300  0.59983791  0.13437271     0.11600
H704        H  0.93414769  0.59743641  0.07435001     0.08100
loop_ 
_geom_bond_atom_site_label_1 
_geom_bond_atom_site_label_2 
_geom_bond_distance 
_geom_bond_site_symmetry_2 
_ccdc_geom_bond_type 
N1            N2   1.321       .  A
N1            C5   1.347       .  A
N1           Cu9   2.078       .  S
N2            C3   1.342       .  A
N2           Cu8   2.070       .  S
C3            C4   1.387   1_655  A
C3            H6   1.081       .  S
C4            C5   1.389   1_455  A
C4          C649   1.487       .  S
C5            H7   1.081   1_655  S
Cu8          N11   2.070       .  S
Cu9          N19   2.078       .  S
Cu10         N12   2.072       .  S
Cu10         N18   2.072       .  S
N11          N12   1.320       .  A
N11          C15   1.345       .  A
N12          C13   1.343       .  A
C13          C14   1.388       .  A
C13          H16   1.081       .  S
C14          C15   1.388       .  A
C14         C689   1.485       .  S
C15          H17   1.081       .  S
N18          N19   1.321       .  A
N18          C22   1.344       .  A
N19          C20   1.344       .  A
C20          C21   1.390       .  A
C20          H23   1.081       .  S
C21          C22   1.388       .  A
C21         C678   1.488       .  S
C22          H24   1.081       .  S
N25          N26   1.321       .  A
N25          C29   1.346       .  A
N25         Cu33   2.073       .  S
N26          C27   1.342       .  A
N26         Cu32   2.070       .  S
C27          C28   1.386       .  A
C27          H30   1.081       .  S
C28          C29   1.388       .  A
C28         C609   1.482       .  S
C29          H31   1.081       .  S
Cu32         N35   2.069       .  S
Cu33         N43   2.073       .  S
Cu34         N36   2.068       .  S
Cu34         N42   2.068       .  S
N35          N36   1.320       .  A
N35          C39   1.343       .  A
N36          C37   1.345       .  A
C37          C38   1.388       .  A
C37          H40   1.082       .  S
C38          C39   1.387       .  A
C38         C698   1.484       .  S
C39          H41   1.081       .  S
N42          N43   1.322       .  A
N42          C46   1.342       .  A
N43          C44   1.345       .  A
C44          C45   1.387       .  A
C44          H47   1.081       .  S
C45          C46   1.385       .  A
C45         C638   1.480       .  S
C46          H48   1.081       .  S
N49          N50   1.324       .  A
N49          C53   1.345       .  A
N49         Cu57   2.077       .  S
N50          C51   1.347       .  A
N50         Cu56   2.091       .  S
C51          C52   1.386       .  A
C51          H54   1.082       .  S
C52          C53   1.382       .  A
C52         C148   1.476       .  S
C53          H55   1.082       .  S
Cu56         N59   2.090       .  S
Cu57         N67   2.075       .  S
Cu58         N60   2.068       .  S
Cu58         N66   2.068       .  S
N59          N60   1.323       .  A
N59          C63   1.351       .  A
N60          C61   1.341       .  A
C61          C62   1.379   1_655  A
C61          H64   1.082   1_655  S
C62          C63   1.387   1_455  A
C62          C86   1.470       .  S
C63          H65   1.082       .  S
N66          N67   1.319       .  A
N66          C70   1.343       .  A
N67          C68   1.346       .  A
C68          C69   1.389       .  A
C68          H71   1.081       .  S
C69          C70   1.388       .  A
C69         C669   1.487       .  S
C70          H72   1.081       .  S
N73          N74   1.324       .  A
N73          C77   1.342       .  A
N73         Cu81   2.059       .  S
N74          C75   1.349       .  A
N74         Cu80   2.099       .  S
C75          C76   1.388       .  A
C75          H78   1.082       .  S
C76          C77   1.377       .  A
C76         C172   1.471       .  S
C77          H79   1.082       .  S
Cu80         N83   2.098       .  S
Cu81         N91   2.058       .  S
Cu82         N84   2.059       .  S
Cu82         N90   2.058       .  S
N83          N84   1.323       .  A
N83          C87   1.353       .  A
N84          C85   1.339       .  A
C85          C86   1.376       .  A
C85          H88   1.082       .  S
C86          C87   1.388       .  A
C87          H89   1.082       .  S
N90          N91   1.317       .  A
N90          C94   1.342       .  A
N91          C92   1.342       .  A
C92          C93   1.388       .  A
C92          H95   1.081       .  S
C93          C94   1.388       .  A
C93         C629   1.483       .  S
C94          H96   1.081       .  S
N97          N98   1.321       .  A
N97         C101   1.348       .  A
N97        Cu105   2.083       .  S
N98          C99   1.343       .  A
N98        Cu104   2.065       .  S
C99         C100   1.385       .  A
C99         H102   1.082   1_565  S
C100        C101   1.389       .  A
C100        C549   1.483   1_565  S
C101        H103   1.082       .  S
Cu104       N107   2.065       .  S
Cu105       N115   2.084       .  S
Cu106       N108   2.073       .  S
Cu106       N114   2.075       .  S
N107        N108   1.319       .  A
N107        C111   1.341       .  A
N108        C109   1.346       .  A
C109        C110   1.390       .  A
C109        H112   1.081       .  S
C110        C111   1.388       .  A
C110        C598   1.487       .  S
C111        H113   1.080       .  S
N114        N115   1.323       .  A
N114        C118   1.344       .  A
N115        C116   1.346       .  A
C116        C117   1.388       .  A
C116        H119   1.081       .  S
C117        C118   1.386       .  A
C117        C569   1.485       .  S
C118        H120   1.081       .  S
N121        N122   1.322       .  A
N121        C125   1.344       .  A
N121       Cu129   2.073       .  S
N122        C123   1.345       .  A
N122       Cu128   2.073       .  S
C123        C124   1.385       .  A
C123        H126   1.082   1_565  S
C124        C125   1.386       .  A
C124        C509   1.480   1_565  S
C125        H127   1.082       .  S
Cu128       N131   2.072       .  S
Cu129       N139   2.073       .  S
Cu130       N132   2.064       .  S
Cu130       N138   2.064       .  S
N131        N132   1.320       .  A
N131        C135   1.343       .  A
N132        C133   1.344       .  A
C133        C134   1.387       .  A
C133        H136   1.081       .  S
C134        C135   1.388       .  A
C134        C589   1.482       .  S
C135        H137   1.081       .  S
N138        N139   1.321       .  A
N138        C142   1.342       .  A
N139        C140   1.345       .  A
C140        C141   1.387       .  A
C140        H143   1.082       .  S
C141        C142   1.383       .  A
C141        C538   1.477       .  S
C142        H144   1.082       .  S
N145        N146   1.325       .  A
N145        C149   1.346       .  A
N145       Cu153   2.082       .  S
N146        C147   1.347       .  A
N146       Cu152   2.090       .  S
C147        C148   1.385       .  A
C147        H150   1.082       .  S
C148        C149   1.383       .  A
C149        H151   1.082       .  S
Cu152       N155   2.089       .  S
Cu153       N163   2.081       .  S
Cu154       N156   2.065       .  S
Cu154       N162   2.065       .  S
N155        N156   1.322       .  A
N155        C159   1.350       .  A
N156        C157   1.342       .  A
C157        C158   1.379       .  A
C157        H160   1.082       .  S
C158        C159   1.386       .  A
C158        C182   1.467       .  S
C159        H161   1.082       .  S
N162        N163   1.320       .  A
N162        C166   1.343       .  A
N163        C164   1.347       .  A
C164        C165   1.391       .  A
C164        H167   1.081       .  S
C165        C166   1.387       .  A
C165        C578   1.489       .  S
C166        H168   1.081       .  S
N169        N170   1.324       .  A
N169        C173   1.345       .  A
N169       Cu177   2.064       .  S
N170        C171   1.346       .  A
N170       Cu176   2.090       .  S
C171        C172   1.386       .  A
C171        H174   1.082       .  S
C172        C173   1.380       .  A
C173        H175   1.082       .  S
Cu176       N179   2.089       .  S
Cu177       N187   2.064       .  S
Cu178       N180   2.066       .  S
Cu178       N186   2.066       .  S
N179        N180   1.322       .  A
N179        C183   1.349       .  A
N180        C181   1.343       .  A
C181        C182   1.380       .  A
C181        H184   1.082       .  S
C182        C183   1.386       .  A
C183        H185   1.082       .  S
N186        N187   1.320       .  A
N186        C190   1.342       .  A
N187        C188   1.345       .  A
C188        C189   1.385       .  A
C188        H191   1.082       .  S
C189        C190   1.384       .  A
C189        C529   1.475       .  S
C190        H192   1.082       .  S
N193        N194   1.322       .  A
N193        C197   1.346       .  A
N193       Cu201   2.080       .  S
N194        C195   1.342       .  A
N194       Cu200   2.071       .  S
C195        C196   1.387       .  A
C195        H198   1.081       .  S
C196        C197   1.389       .  A
C196        C518   1.487       .  S
C197        H199   1.081       .  S
Cu200       N203   2.070       .  S
Cu201       N211   2.079       .  S
Cu202       N204   2.063       .  S
Cu202       N210   2.063       .  S
N203        N204   1.320       .  A
N203        C207   1.344       .  A
N204        C205   1.344       .  A
C205        C206   1.385   1_556  A
C205        H208   1.082       .  S
C206        C207   1.386   1_554  A
C206        C489   1.477       .  S
C207        H209   1.082       .  S
N210        N211   1.322       .  A
N210        C214   1.341       .  A
N211        C212   1.348       .  A
C212        C213   1.387       .  A
C212        H215   1.082       .  S
C213        C214   1.382       .  A
C213        C469   1.477       .  S
C214        H216   1.082       .  S
N217        N218   1.320       .  A
N217        C221   1.345   1_455  A
N217       Cu225   2.070       .  S
N218        C219   1.344   1_455  A
N218       Cu224   2.071       .  S
C219        C220   1.389       .  A
C219        H222   1.081       .  S
C220        C221   1.388       .  A
C220        C558   1.487       .  S
C221        H223   1.081       .  S
Cu224       N227   2.071       .  S
Cu225       N235   2.070       .  S
Cu226       N228   2.072       .  S
Cu226       N234   2.073       .  S
N227        N228   1.321       .  A
N227        C231   1.342       .  A
N228        C229   1.345       .  A
C229        C230   1.388       .  A
C229        H232   1.081       .  S
C230        C231   1.388       .  A
C230        C498   1.486       .  S
C231        H233   1.081       .  S
N234        N235   1.321       .  A
N234        C238   1.344       .  A
N235        C236   1.343       .  A
C236        C237   1.388       .  A
C236        H239   1.081       .  S
C237        C238   1.389       .  A
C237        C458   1.486       .  S
C238        H240   1.081       .  S
N241        N242   1.325       .  A
N241        C245   1.345       .  A
N241       Cu249   2.067       .  S
N242        C243   1.349       .  A
N242       Cu248   2.107       .  S
C243        C244   1.389       .  A
C243        H246   1.082       .  S
C244        C245   1.379       .  A
C244        C340   1.477       .  S
C245        H247   1.082       .  S
Cu248       N251   2.106       .  S
Cu249       N259   2.066       .  S
Cu250       N252   2.065       .  S
Cu250       N258   2.064       .  S
N251        N252   1.323       .  A
N251        C255   1.353       .  A
N252        C253   1.342   1_455  A
C253        C254   1.379       .  A
C253        H256   1.082       .  S
C254        C255   1.389   1_655  A
C254        C278   1.474       .  S
C255        H257   1.082       .  S
N258        N259   1.319       .  A
N258        C262   1.342       .  A
N259        C260   1.345       .  A
C260        C261   1.389       .  A
C260        H263   1.081       .  S
C261        C262   1.388       .  A
C261        C449   1.485       .  S
C262        H264   1.081       .  S
N265        N266   1.323       .  A
N265        C269   1.343       .  A
N265       Cu273   2.063       .  S
N266        C267   1.351       .  A
N266       Cu272   2.104       .  S
C267        C268   1.390       .  A
C267        H270   1.082       .  S
C268        C269   1.379       .  A
C268        C364   1.477       .  S
C269        H271   1.082       .  S
Cu272       N275   2.104       .  S
Cu273       N283   2.062       .  S
Cu274       N276   2.077       .  S
Cu274       N282   2.075       .  S
N275        N276   1.325       .  A
N275        C279   1.352       .  A
N276        C277   1.344       .  A
C277        C278   1.380       .  A
C277        H280   1.082       .  S
C278        C279   1.388       .  A
C279        H281   1.082       .  S
N282        N283   1.320       .  A
N282        C286   1.346       .  A
N283        C284   1.344       .  A
C284        C285   1.384       .  A
C284        H287   1.082       .  S
C285        C286   1.387       .  A
C285        C478   1.478       .  S
C286        H288   1.082       .  S
N289        N290   1.322       .  A
N289        C293   1.346       .  A
N289       Cu297   2.077       .  S
N290        C291   1.343       .  A
N290       Cu296   2.072       .  S
C291        C292   1.385       .  A
C291        H294   1.082       .  S
C292        C293   1.387       .  A
C292        C618   1.481       .  S
C293        H295   1.082       .  S
Cu296       N299   2.072       .  S
Cu297       N307   2.077       .  S
Cu298       N300   2.065       .  S
Cu298       N306   2.065       .  S
N299        N300   1.320       .  A
N299        C303   1.344       .  A
N300        C301   1.344       .  A
C301        C302   1.386       .  A
C301        H304   1.081       .  S
C302        C303   1.387       .  A
C302        C429   1.481       .  S
C303        H305   1.082       .  S
N306        N307   1.322       .  A
N306        C310   1.343       .  A
N307        C308   1.344       .  A
C308        C309   1.387       .  A
C308        H311   1.082       .  S
C309        C310   1.384       .  A
C309        C409   1.479       .  S
C310        H312   1.082       .  S
N313        N314   1.322       .  A
N313        C317   1.349       .  A
N313       Cu321   2.085       .  S
N314        C315   1.340       .  A
N314       Cu320   2.063       .  S
C315        C316   1.383       .  A
C315        H318   1.082       .  S
C316        C317   1.389       .  A
C316        C658   1.480       .  S
C317        H319   1.082       .  S
Cu320       N323   2.062       .  S
Cu321       N331   2.086       .  S
Cu322       N324   2.070       .  S
Cu322       N330   2.072       .  S
N323        N324   1.319       .  A
N323        C327   1.341       .  A
N324        C325   1.346       .  A
C325        C326   1.390       .  A
C325        H328   1.081       .  S
C326        C327   1.388       .  A
C326        C438   1.487   1_556  S
C327        H329   1.080       .  S
N330        N331   1.323       .  A
N330        C334   1.342       .  A
N331        C332   1.346       .  A
C332        C333   1.390       .  A
C332        H335   1.081       .  S
C333        C334   1.387       .  A
C333        C389   1.488       .  S
C334        H336   1.081       .  S
N337        N338   1.324       .  A
N337        C341   1.344       .  A
N337       Cu345   2.068       .  S
N338        C339   1.349       .  A
N338       Cu344   2.104       .  S
C339        C340   1.389       .  A
C339        H342   1.082       .  S
C340        C341   1.379       .  A
C341        H343   1.082       .  S
Cu344       N347   2.103       .  S
Cu345       N355   2.067       .  S
Cu346       N348   2.069       .  S
Cu346       N354   2.068       .  S
N347        N348   1.323       .  A
N347        C351   1.352       .  A
N348        C349   1.343       .  A
C349        C350   1.379       .  A
C349        H352   1.082       .  S
C350        C351   1.388       .  A
C350        C374   1.473       .  S
C351        H353   1.082       .  S
N354        N355   1.319       .  A
N354        C358   1.343       .  A
N355        C356   1.345       .  A
C356        C357   1.389       .  A
C356        H359   1.081       .  S
C357        C358   1.388       .  A
C357        C398   1.485       .  S
C358        H360   1.081       .  S
N361        N362   1.325       .  A
N361        C365   1.347       .  A
N361       Cu369   2.077       .  S
N362        C363   1.347       .  A
N362       Cu368   2.101       .  S
C363        C364   1.387       .  A
C363        H366   1.082       .  S
C364        C365   1.382       .  A
C365        H367   1.082       .  S
Cu368       N371   2.099       .  S
Cu369       N379   2.075       .  S
Cu370       N372   2.064       .  S
Cu370       N378   2.063       .  S
N371        N372   1.322       .  A
N371        C375   1.352       .  A
N372        C373   1.343       .  A
C373        C374   1.380       .  A
C373        H376   1.082       .  S
C374        C375   1.389       .  A
C375        H377   1.082       .  S
N378        N379   1.321       .  A
N378        C382   1.341       .  A
N379        C380   1.348       .  A
C380        C381   1.385       .  A
C380        H383   1.082       .  S
C381        C382   1.381       .  A
C381        C418   1.473       .  S
C382        H384   1.082       .  S
C385        C386   1.404       .  A
C385        C390   1.396       .  A
C385        H395   1.083       .  S
C386        C387   1.405       .  A
C386        C391   1.486       .  S
C387        C388   1.399       .  A
C387        H392   1.083       .  S
C388        C389   1.407       .  A
C388        H393   1.081       .  S
C389        C390   1.407       .  A
C390        H394   1.081       .  S
C391        C396   1.405       .  A
C391        C400   1.405       .  A
C396        C397   1.397       .  A
C396        H401   1.083       .  S
C397        C398   1.406       .  A
C397        H402   1.081       .  S
C398        C399   1.407       .  A
C399        C400   1.399       .  A
C399        H403   1.081       .  S
C400        H404   1.083       .  S
C405        C406   1.408       .  A
C405        C410   1.395       .  A
C405        H415   1.082       .  S
C406        C407   1.407       .  A
C406        C411   1.489       .  S
C407        C408   1.398       .  A
C407        H412   1.082       .  S
C408        C409   1.405       .  A
C408        H413   1.082       .  S
C409        C410   1.403       .  A
C410        H414   1.082       .  S
C411        C416   1.407       .  A
C411        C420   1.410       .  A
C416        C417   1.394       .  A
C416        H421   1.082       .  S
C417        C418   1.402       .  A
C417        H422   1.083       .  S
C418        C419   1.402       .  A
C419        C420   1.400       .  A
C419        H423   1.083       .  S
C420        H424   1.082       .  S
C425        C426   1.407       .  A
C425        C430   1.398       .  A
C425        H435   1.082       .  S
C426        C427   1.407       .  A
C426        C431   1.489       .  S
C427        C428   1.396       .  A
C427        H432   1.082       .  S
C428        C429   1.403       .  A
C428        H433   1.082       .  S
C429        C430   1.406       .  A
C430        H434   1.082       .  S
C431        C436   1.407       .  A
C431        C440   1.405       .  A
C436        C437   1.401       .  A
C436        H441   1.082       .  S
C437        C438   1.407       .  A
C437        H442   1.081       .  S
C438        C439   1.406       .  A
C439        C440   1.394       .  A
C439        H443   1.080       .  S
C440        H444   1.082       .  S
C445        C446   1.404       .  A
C445        C450   1.395       .  A
C445        H455   1.083       .  S
C446        C447   1.405       .  A
C446        C451   1.484       .  S
C447        C448   1.398       .  A
C447        H452   1.083       .  S
C448        C449   1.407       .  A
C448        H453   1.081       .  S
C449        C450   1.406       .  A
C450        H454   1.081       .  S
C451        C456   1.404       .  A
C451        C460   1.404       .  A
C456        C457   1.396       .  A
C456        H461   1.083       .  S
C457        C458   1.407       .  A
C457        H462   1.081       .  S
C458        C459   1.407       .  A
C459        C460   1.398       .  A
C459        H463   1.081       .  S
C460        H464   1.083       .  S
C465        C466   1.410       .  A
C465        C470   1.401       .  A
C465        H475   1.082       .  S
C466        C467   1.407       .  A
C466        C471   1.492       .  S
C467        C468   1.394       .  A
C467        H472   1.082       .  S
C468        C469   1.403       .  A
C468        H473   1.083       .  S
C469        C470   1.403       .  A
C470        H474   1.083       .  S
C471        C476   1.407       .  A
C471        C480   1.409       .  A
C476        C477   1.399       .  A
C476        H481   1.082       .  S
C477        C478   1.404       .  A
C477        H482   1.083       .  S
C478        C479   1.401       .  A
C479        C480   1.397       .  A
C479        H483   1.083       .  S
C480        H484   1.082       .  S
C485        C486   1.407       .  A
C485        C490   1.396   1_455  A
C485        H495   1.083       .  S
C486        C487   1.407       .  A
C486        C491   1.488       .  S
C487        C488   1.398   1_455  A
C487        H492   1.082       .  S
C488        C489   1.404       .  A
C488        H493   1.083       .  S
C489        C490   1.402       .  A
C490        H494   1.083       .  S
C491        C496   1.405       .  A
C491        C500   1.407       .  A
C496        C497   1.394       .  A
C496        H501   1.082       .  S
C497        C498   1.405       .  A
C497        H502   1.081       .  S
C498        C499   1.407       .  A
C499        C500   1.400       .  A
C499        H503   1.082       .  S
C500        H504   1.083       .  S
C505        C506   1.404       .  A
C505        C510   1.397       .  A
C505        H515   1.083       .  S
C506        C507   1.404       .  A
C506        C511   1.480       .  S
C507        C508   1.399       .  A
C507        H512   1.083       .  S
C508        C509   1.405       .  A
C508        H513   1.083       .  S
C509        C510   1.405       .  A
C510        H514   1.082   1_545  S
C511        C516   1.402       .  A
C511        C520   1.403       .  A
C516        C517   1.396       .  A
C516        H521   1.083       .  S
C517        C518   1.407       .  A
C517        H522   1.081       .  S
C518        C519   1.408       .  A
C519        C520   1.400       .  A
C519        H523   1.081       .  S
C520        H524   1.083       .  S
C525        C526   1.402       .  A
C525        C530   1.396       .  A
C525        H535   1.083       .  S
C526        C527   1.403       .  A
C526        C531   1.472       .  S
C527        C528   1.397       .  A
C527        H532   1.083       .  S
C528        C529   1.405       .  A
C528        H533   1.083       .  S
C529        C530   1.404       .  A
C530        H534   1.083       .  S
C531        C536   1.401       .  A
C531        C540   1.403       .  A
C536        C537   1.396       .  A
C536        H541   1.083       .  S
C537        C538   1.406       .  A
C537        H542   1.082       .  S
C538        C539   1.405       .  A
C539        C540   1.397       .  A
C539        H543   1.082       .  S
C540        H544   1.083       .  S
C545        C546   1.405       .  A
C545        C550   1.396       .  A
C545        H555   1.083       .  S
C546        C547   1.406       .  A
C546        C551   1.485       .  S
C547        C548   1.401       .  A
C547        H552   1.083       .  S
C548        C549   1.406       .  A
C548        H553   1.083       .  S
C549        C550   1.405       .  A
C550        H554   1.082       .  S
C551        C556   1.404       .  A
C551        C560   1.405       .  A
C556        C557   1.396       .  A
C556        H561   1.083       .  S
C557        C558   1.406       .  A
C557        H562   1.081       .  S
C558        C559   1.408       .  A
C559        C560   1.400       .  A
C559        H563   1.082       .  S
C560        H564   1.083       .  S
C565        C566   1.406       .  A
C565        C570   1.398       .  A
C565        H575   1.083       .  S
C566        C567   1.406       .  A
C566        C571   1.488       .  S
C567        C568   1.399       .  A
C567        H572   1.083       .  S
C568        C569   1.406       .  A
C568        H573   1.082       .  S
C569        C570   1.406       .  A
C570        H574   1.082       .  S
C571        C576   1.405       .  A
C571        C580   1.406       .  A
C576        C577   1.398       .  A
C576        H581   1.083       .  S
C577        C578   1.408       .  A
C577        H582   1.081       .  S
C578        C579   1.406       .  A
C579        C580   1.399       .  A
C579        H583   1.081       .  S
C580        H584   1.083       .  S
C585        C586   1.406       .  A
C585        C590   1.399       .  A
C585        H595   1.083       .  S
C586        C587   1.405       .  A
C586        C591   1.485       .  S
C587        C588   1.395       .  A
C587        H592   1.083       .  S
C588        C589   1.404   1_554  A
C588        H593   1.082   1_554  S
C589        C590   1.407   1_556  A
C590        H594   1.082       .  S
C591        C596   1.405       .  A
C591        C600   1.404       .  A
C596        C597   1.401       .  A
C596        H601   1.083       .  S
C597        C598   1.408       .  A
C597        H602   1.081       .  S
C598        C599   1.406       .  A
C599        C600   1.393       .  A
C599        H603   1.080       .  S
C600        H604   1.083       .  S
C605        C606   1.406       .  A
C605        C610   1.399       .  A
C605        H615   1.083       .  S
C606        C607   1.404       .  A
C606        C611   1.484       .  S
C607        C608   1.396       .  A
C607        H612   1.083       .  S
C608        C609   1.405       .  A
C608        H613   1.082       .  S
C609        C610   1.406       .  A
C610        H614   1.082       .  S
C611        C616   1.405       .  A
C611        C620   1.406       .  A
C616        C617   1.396       .  A
C616        H621   1.083       .  S
C617        C618   1.405       .  A
C617        H622   1.082       .  S
C618        C619   1.405       .  A
C619        C620   1.399       .  A
C619        H623   1.082       .  S
C620        H624   1.083       .  S
C625        C626   1.404       .  A
C625        C630   1.396       .  A
C625        H635   1.083       .  S
C626        C627   1.404       .  A
C626        C631   1.481       .  S
C627        C628   1.395       .  A
C627        H632   1.083       .  S
C628        C629   1.406       .  A
C628        H633   1.081       .  S
C629        C630   1.406       .  A
C630        H634   1.081       .  S
C631        C636   1.405       .  A
C631        C640   1.404       .  A
C636        C637   1.397       .  A
C636        H641   1.083       .  S
C637        C638   1.405       .  A
C637        H642   1.082       .  S
C638        C639   1.406       .  A
C639        C640   1.395       .  A
C639        H643   1.082       .  S
C640        H644   1.083       .  S
C645        C646   1.405       .  A
C645        C650   1.402       .  A
C645        H655   1.083       .  S
C646        C647   1.404       .  A
C646        C651   1.485       .  S
C647        C648   1.394       .  A
C647        H652   1.083       .  S
C648        C649   1.406       .  A
C648        H653   1.081       .  S
C649        C650   1.408       .  A
C650        H654   1.082       .  S
C651        C656   1.407       .  A
C651        C660   1.404       .  A
C656        C657   1.404       .  A
C656        H661   1.083       .  S
C657        C658   1.406       .  A
C657        H662   1.083       .  S
C658        C659   1.404       .  A
C659        C660   1.392       .  A
C659        H663   1.082       .  S
C660        H664   1.083       .  S
C665        C666   1.405       .  A
C665        C670   1.396       .  A
C665        H675   1.083       .  S
C666        C667   1.406       .  A
C666        C671   1.487       .  S
C667        C668   1.400       .  A
C667        H672   1.083       .  S
C668        C669   1.407       .  A
C668        H673   1.081       .  S
C669        C670   1.406       .  A
C670        H674   1.081       .  S
C671        C676   1.405       .  A
C671        C680   1.405       .  A
C676        C677   1.397       .  A
C676        H681   1.083       .  S
C677        C678   1.406       .  A
C677        H682   1.081       .  S
C678        C679   1.408       .  A
C679        C680   1.399       .  A
C679        H683   1.081       .  S
C680        H684   1.083       .  S
C685        C686   1.406       .  A
C685        C690   1.396   1_554  A
C685        H695   1.082       .  S
C686        C687   1.407       .  A
C686        C691   1.490       .  S
C687        C688   1.399   1_554  A
C687        H692   1.082       .  S
C688        C689   1.406       .  A
C688        H693   1.082       .  S
C689        C690   1.405       .  A
C690        H694   1.081       .  S
C691        C696   1.406       .  A
C691        C700   1.408       .  A
C696        C697   1.396   1_655  A
C696        H701   1.082       .  S
C697        C698   1.405       .  A
C697        H702   1.081       .  S
C698        C699   1.405   1_455  A
C699        C700   1.399       .  A
C699        H703   1.082       .  S
C700        H704   1.082       .  S
