geometry optimzed in LAMMPS
_audit_creation_date              2020-11-30 
_audit_creation_method            'lammps2cif' 
_symmetry_space_group_name_H-M    'P1' 
_symmetry_Int_Tables_number       1 
_symmetry_cell_setting            triclinic 
loop_ 
_symmetry_equiv_pos_as_xyz 
  x,y,z 
_cell_length_a                    48.57475789 
_cell_length_b                    72.69913638409203 
_cell_length_c                    33.40246415373621 
_cell_angle_alpha                 90.34708644752105 
_cell_angle_beta                  118.97692918852796 
_cell_angle_gamma                 89.98251788034779 
loop_ 
_atom_site_label 
_atom_site_type_symbol 
_atom_site_fract_x 
_atom_site_fract_y 
_atom_site_fract_z 
_atom_site_charge 
C1          C  0.95524694  0.60245271  0.79439249     0.04100
C2          C  0.97678798  0.60579373  0.84085979    -0.12000
C3          C  0.98806805  0.59114967  0.87185264     0.01600
C4          C  0.97805299  0.57321321  0.85627945    -0.10500
C5          C  0.95719971  0.56968125  0.81008617     0.04100
C6          C  0.94524708  0.58431462  0.77934993    -0.10000
H7          H  0.98545908  0.61960628  0.85253847     0.09700
H8          H  0.98779126  0.56181925  0.87985087     0.07200
H9          H  0.92951544  0.58150766  0.74342249     0.07100
C10         C  0.11769553  0.59262875  0.14036636     0.04100
C11         C  0.12435232  0.57379300  0.14905169    -0.12000
C12         C  0.11171596  0.56100494  0.11302763     0.01600
C13         C  0.09229683  0.56697778  0.06829598    -0.10500
C14         C  0.08489557  0.58558132  0.05917694     0.04100
C15         C  0.09795533  0.59847590  0.09508953    -0.10000
H16         H  0.13831868  0.56902019  0.18389828     0.09700
H17         H  0.08145653  0.55695965  0.04075354     0.07200
H18         H  0.09184343  0.61286986  0.08811070     0.07100
N19         N  0.96751087  0.71195830  0.52448938    -0.26300
N20         N  0.98364070  0.70362954  0.56416571    -0.34100
C21         C  0.01200375  0.69889069  0.56974340     0.02100
C22         C  0.01375828  0.70446253  0.53150444     0.08100
C23         C  0.98514252  0.71278421  0.50356743    -0.05000
H24         H  0.02953251  0.69134999  0.59867174     0.08700
H25         H  0.97723354  0.71830851  0.46975669     0.09900
Cu26       Cu  0.96419398  0.69660791  0.60480326     0.44200
Cu27       Cu  0.92154165  0.72016265  0.50045059     0.42000
Cu28       Cu  0.88070267  0.70164526  0.56073305     0.43900
N29         N  0.93953561  0.68401001  0.63281692    -0.33700
N30         N  0.90870545  0.68482316  0.61597112    -0.27900
C31         C  0.90019259  0.67252923  0.63816646    -0.04000
C32         C  0.92711092  0.66360850  0.67019924     0.08200
C33         C  0.95147157  0.67140082  0.66596702     0.02000
H34         H  0.87617035  0.66954882  0.62979430     0.09600
H35         H  0.97588949  0.66728119  0.68354002     0.08700
N36         N  0.86209346  0.72108451  0.50861846    -0.35100
N37         N  0.87698459  0.72765127  0.48740691    -0.27300
C38         C  0.85980435  0.74117094  0.45913039    -0.02500
C39         C  0.83284165  0.74329494  0.46264098     0.06100
C40         C  0.83491926  0.73031350  0.49410817     0.04200
H41         H  0.86713173  0.74942549  0.43904537     0.09300
H42         H  0.81873936  0.72842773  0.50736391     0.08100
N43         N  0.15313429  0.69325190  0.47338364    -0.26300
N44         N  0.13670757  0.67918373  0.44785187    -0.34100
C45         C  0.11134869  0.67667209  0.45348627     0.02100
C46         C  0.11201244  0.68987003  0.48410215     0.08100
C47         C  0.13898817  0.70003821  0.49621503    -0.05000
H48         H  0.09307971  0.66664034  0.43505715     0.08700
H49         H  0.14703142  0.71198081  0.51838319     0.09900
Cu50       Cu  0.14857099  0.66581069  0.40337676     0.44200
Cu51       Cu  0.19090349  0.70434254  0.47023494     0.42000
Cu52       Cu  0.20985756  0.68717424  0.38437520     0.43900
N53         N  0.16201205  0.65643763  0.35666022    -0.33700
N54         N  0.18345166  0.66427030  0.34868101    -0.27900
C55         C  0.18358130  0.65566386  0.31293462    -0.04000
C56         C  0.16114816  0.64178385  0.29773081     0.08200
C57         C  0.14824751  0.64261414  0.32664136     0.02000
H58         H  0.19794408  0.65975394  0.29783791     0.09600
H59         H  0.12930189  0.63422652  0.32489409     0.08700
N60         N  0.23054147  0.71038385  0.42468374    -0.35100
N61         N  0.22344571  0.71635162  0.45603226    -0.27300
C62         C  0.23965722  0.73180034  0.47533873    -0.02500
C63         C  0.25803430  0.73580589  0.45544339     0.06100
C64         C  0.25170574  0.72197047  0.42337951     0.04200
H65         H  0.23774910  0.73971645  0.50143105     0.09300
H66         H  0.26164051  0.72048774  0.40067194     0.08100
C67         C  0.61104150  0.96163551  0.13687450     0.04100
C68         C  0.58837664  0.95605048  0.09258000    -0.12000
C69         C  0.57406068  0.96894530  0.05753521     0.01600
C70         C  0.58187574  0.98757863  0.06681247    -0.10500
C71         C  0.60398083  0.99343555  0.11085838     0.04100
C72         C  0.61885818  0.98044029  0.14577899    -0.10000
H73         H  0.58171655  0.94168749  0.08542771     0.09700
H74         H  0.57030793  0.99760247  0.03982914     0.07200
H75         H  0.63606311  0.98497416  0.17978948     0.07100
C76         C  0.45526234  0.94786401  0.79076280     0.04100
C77         C  0.44162399  0.96523025  0.77464263    -0.12000
C78         C  0.44703531  0.97966168  0.80571646     0.01600
C79         C  0.46588519  0.97669671  0.85263334    -0.10500
C80         C  0.48015869  0.95967242  0.86902588     0.04100
C81         C  0.47455166  0.94518751  0.83804806    -0.10000
H82         H  0.42772876  0.96763469  0.73821119     0.09700
H83         H  0.47115985  0.98810607  0.87636060     0.07200
H84         H  0.48602939  0.93206579  0.85053946     0.07100
N85         N  0.62234196  0.83424168  0.39713197    -0.26300
N86         N  0.60849057  0.84986172  0.37819898    -0.34100
C87         C  0.58571561  0.85329169  0.38908056     0.02100
C88         C  0.58526268  0.83902573  0.41610657     0.08100
C89         C  0.60874104  0.82714376  0.42029548    -0.05000
H90         H  0.57121620  0.86544676  0.37914202     0.08700
H91         H  0.61579953  0.81447604  0.43933273     0.09900
Cu92       Cu  0.62295626  0.86568653  0.34053569     0.44200
Cu93       Cu  0.66036645  0.82437365  0.39281295     0.42000
Cu94       Cu  0.69387617  0.85180354  0.33547096     0.43900
N95         N  0.64247590  0.88024540  0.30736996    -0.33700
N96         N  0.66874244  0.87592386  0.30685857    -0.27900
C97         C  0.67470322  0.88895889  0.28350205    -0.04000
C98         C  0.65076080  0.90197237  0.26799353     0.08200
C99         C  0.63078946  0.89578740  0.28374920     0.02000
H100        H  0.69495732  0.88886830  0.27816712     0.09600
H101        H  0.60885631  0.90193746  0.27776652     0.08700
N102        N  0.71143102  0.82638204  0.36608566    -0.35100
N103        N  0.69884934  0.81678901  0.38672776    -0.27300
C104        C  0.71523904  0.80128927  0.40352365    -0.02500
C105        C  0.73930325  0.80087855  0.39288351     0.06100
C106        C  0.73636821  0.81703080  0.36923460     0.04200
H107        H  0.71019654  0.79114176  0.42269085     0.09300
H108        H  0.75130167  0.82166010  0.35547841     0.08100
N109        N  0.46738107  0.82971992  0.51584481    -0.26300
N110        N  0.48627874  0.84145815  0.54771987    -0.34100
C111        C  0.51089681  0.84510359  0.54095928     0.02100
C112        C  0.50703571  0.83517476  0.50298840     0.08100
C113        C  0.47932825  0.82550786  0.48820272    -0.05000
H114        H  0.52945223  0.85477509  0.56091568     0.08700
H115        H  0.46819531  0.81647913  0.45882720     0.09900
Cu116      Cu  0.47561738  0.85338583  0.59545976     0.44200
Cu117      Cu  0.42486950  0.82090105  0.50773658     0.42000
Cu118      Cu  0.39603079  0.84371127  0.57463171     0.43900
N119        N  0.45463823  0.86646866  0.62952470    -0.33700
N120        N  0.42514754  0.86364546  0.61975840    -0.27900
C121        C  0.41755997  0.87567778  0.64352447    -0.04000
C122        C  0.44358342  0.88656969  0.67016235     0.08200
C123        C  0.46673975  0.88017932  0.66054664     0.02000
H124        H  0.39440592  0.87674328  0.64043954     0.09600
H125        H  0.49045665  0.88542142  0.67418243     0.05500
N126        N  0.37316691  0.82166889  0.53183273    -0.35100
N127        N  0.38375209  0.81350090  0.50656354    -0.27300
C128        C  0.36547663  0.79893575  0.48500930    -0.02500
C129        C  0.34238395  0.79781854  0.49761205     0.06100
C130        C  0.34789906  0.81238793  0.52740461     0.04200
H131        H  0.36980796  0.78926556  0.46396267     0.09300
H132        H  0.33539000  0.81550492  0.54599422     0.08100
C133        C  0.42503798  0.08939033  0.77822547     0.04100
C134        C  0.41791460  0.07062293  0.76741786    -0.12000
C135        C  0.43250585  0.05728006  0.80143185     0.01600
C136        C  0.45324832  0.06274822  0.84647848    -0.10500
C137        C  0.46031662  0.08135309  0.85767221     0.04100
C138        C  0.44603226  0.09462095  0.82355120    -0.10000
H139        H  0.40265830  0.06636739  0.73230773     0.09700
H140        H  0.46543034  0.05239198  0.87236040     0.07200
H141        H  0.45249501  0.10896260  0.83185248     0.07100
C142        C  0.59663999  0.10407590  0.11544447     0.04100
C143        C  0.57423549  0.10606743  0.06889375    -0.12000
C144        C  0.56412390  0.09071063  0.03977274     0.01600
C145        C  0.57784161  0.07360697  0.05618050    -0.10500
C146        C  0.60049471  0.07139870  0.10203035     0.04100
C147        C  0.60977100  0.08660913  0.13184936    -0.10000
H148        H  0.56328457  0.11928583  0.05606492     0.09700
H149        H  0.56936222  0.06167086  0.03375297     0.07200
H150        H  0.62593273  0.08468302  0.16794396     0.07100
N151        N  0.60426248  0.20965082  0.42311370    -0.26300
N152        N  0.59147758  0.19461748  0.39882379    -0.34100
C153        C  0.56870424  0.18867607  0.40745612     0.02100
C154        C  0.56725540  0.20055368  0.43895983     0.08100
C155        C  0.59026249  0.21365627  0.44825091    -0.05000
H156        H  0.55372865  0.17692936  0.39102928     0.08700
H157        H  0.59596564  0.22545895  0.47078870     0.09900
Cu158      Cu  0.60489800  0.18385459  0.35357215     0.44200
Cu159      Cu  0.63764854  0.22478062  0.41672235     0.42000
Cu160      Cu  0.65828650  0.21071611  0.32918103     0.43900
N161        N  0.61918038  0.17622867  0.30683495    -0.33700
N162        N  0.63776516  0.18605281  0.29653115    -0.27900
C163        C  0.64009549  0.17752214  0.26236733    -0.04000
C164        C  0.62213068  0.16157097  0.25083361     0.08200
C165        C  0.60951571  0.16119235  0.28007745     0.02000
H166        H  0.65322537  0.18279253  0.24635136     0.09600
H167        H  0.59383424  0.15089754  0.28122354     0.08700
N168        N  0.67504774  0.23434872  0.36924000    -0.35100
N169        N  0.66733511  0.23926191  0.40070365    -0.27300
C170        C  0.68208318  0.25501852  0.42063737    -0.02500
C171        C  0.70021261  0.26028495  0.40116791     0.06100
C172        C  0.69517667  0.24689591  0.36862732     0.04200
H173        H  0.67989246  0.26205104  0.44763963     0.09300
H174        H  0.70584609  0.24614048  0.34670295     0.08100
N175        N  0.42670765  0.19875409  0.49442631    -0.26300
N176        N  0.44628390  0.19126213  0.53407393    -0.34100
C177        C  0.47488206  0.18988510  0.53729089     0.02100
C178        C  0.47307983  0.19694707  0.49771390     0.08100
C179        C  0.44220349  0.20243737  0.47130626    -0.05000
H180        H  0.49536611  0.18414158  0.56615395     0.08700
H181        H  0.43175265  0.20859381  0.43777757     0.09900
Cu182      Cu  0.43221035  0.18252832  0.58013884     0.44200
Cu183      Cu  0.38047846  0.20446534  0.47498200     0.42000
Cu184      Cu  0.35026835  0.18940192  0.54971623     0.43900
N185        N  0.41051260  0.16998250  0.61289511    -0.33700
N186        N  0.38038138  0.17166581  0.60080612    -0.27900
C187        C  0.37323011  0.15955020  0.62477023    -0.04000
C188        C  0.40018653  0.14978199  0.65311838     0.08200
C189        C  0.42335658  0.15694443  0.64494989     0.02000
H190        H  0.34985297  0.15738486  0.62022120     0.09600
H191        H  0.44745182  0.15235182  0.65948028     0.08700
N192        N  0.32873222  0.20913061  0.49913289    -0.35100
N193        N  0.33966623  0.21422749  0.47153593    -0.27300
C194        C  0.32299918  0.22860534  0.44653893    -0.02500
C195        C  0.30047777  0.23287313  0.45896386     0.06100
C196        C  0.30465211  0.22019407  0.49225192     0.04200
H197        H  0.32836870  0.23621345  0.42341273     0.09300
H198        H  0.29220721  0.21967438  0.51175694     0.08100
C199        C  0.09669189  0.45066904  0.11716096     0.04100
C200        C  0.10865732  0.46855802  0.13183325    -0.12000
C201        C  0.09854349  0.48310102  0.10062746     0.01600
C202        C  0.07735229  0.47971814  0.05452928    -0.10500
C203        C  0.06567787  0.46200314  0.03918120     0.04100
C204        C  0.07492231  0.44754317  0.07062270    -0.10000
H205        H  0.12536262  0.47122646  0.16745943     0.09700
H206        H  0.06962345  0.49101035  0.03045338     0.07200
H207        H  0.06532647  0.43389910  0.05885723     0.07100
C208        C  0.94646244  0.45991236  0.76645025     0.04100
C209        C  0.96603872  0.45411280  0.81169927    -0.12000
C210        C  0.97915910  0.46702170  0.84738772     0.01600
C211        C  0.97284602  0.48571121  0.83787964    -0.10500
C212        C  0.95361775  0.49167064  0.79303297     0.04100
C213        C  0.94012886  0.47877379  0.75729675    -0.10000
H214        H  0.97160100  0.43966654  0.81894154     0.09700
H215        H  0.98362277  0.49573208  0.86541933     0.07200
H216        H  0.92546368  0.48340555  0.72250038     0.07100
N217        N  0.91960769  0.34262304  0.46737667    -0.26300
N218        N  0.94054457  0.35238414  0.50242003    -0.34100
C219        C  0.96743394  0.35313271  0.50029045     0.02100
C220        C  0.96318877  0.34346960  0.46184334     0.08100
C221        C  0.93257013  0.33693616  0.44184829    -0.05000
H222        H  0.98826399  0.36053053  0.52434458     0.08700
H223        H  0.92034079  0.32907909  0.41045101     0.09900
Cu224      Cu  0.93076845  0.36576198  0.54902420     0.44200
Cu225      Cu  0.87443308  0.33788591  0.45613318     0.42000
Cu226      Cu  0.85182955  0.36192950  0.53187037     0.43900
N227        N  0.91389158  0.38116477  0.58486903    -0.33700
N228        N  0.88462738  0.38027496  0.57743329    -0.27900
C229        C  0.88053009  0.39301030  0.60342790    -0.04000
C230        C  0.90868048  0.40235469  0.62867717     0.08200
C231        C  0.92930798  0.39436315  0.61612592     0.02000
H232        H  0.85847306  0.39552235  0.60311751     0.09600
H233        H  0.95366252  0.39805441  0.62829757     0.08700
N234        N  0.82525716  0.34148795  0.48630336    -0.35100
N235        N  0.83321613  0.33303291  0.45824991    -0.27300
C236        C  0.81218163  0.31966902  0.43566998    -0.02500
C237        C  0.79009528  0.31966211  0.45042483     0.06100
C238        C  0.79903975  0.33364911  0.48250795     0.04200
H239        H  0.81384048  0.31000805  0.41220941     0.09300
H240        H  0.78805442  0.33737959  0.50292880     0.08100
N241        N  0.09292030  0.33028332  0.38377119    -0.26300
N242        N  0.07676371  0.34307910  0.35359598    -0.34100
C243        C  0.05165588  0.34773818  0.35813315     0.02100
C244        C  0.05203525  0.33733807  0.39294393     0.08100
C245        C  0.07849252  0.32635492  0.40839524    -0.05000
H246        H  0.03483648  0.35818171  0.33834029     0.08700
H247        H  0.08713295  0.31670243  0.43630852     0.09900
Cu248      Cu  0.09130043  0.35463809  0.31066180     0.44200
Cu249      Cu  0.13468452  0.32001947  0.39079572     0.42000
Cu250      Cu  0.16684271  0.34183635  0.32263743     0.43900
N251        N  0.11191946  0.36754410  0.27694715    -0.33700
N252        N  0.13993225  0.36349741  0.28194136    -0.27900
C253        C  0.14709307  0.37574940  0.25819097    -0.04000
C254        C  0.12230580  0.38805393  0.23740145     0.08200
C255        C  0.10042947  0.38225564  0.24985537     0.02000
H256        H  0.16905440  0.37601001  0.25728941     0.09600
H257        H  0.07802229  0.38856940  0.24083163     0.08700
N258        N  0.18687469  0.31941265  0.36566204    -0.35100
N259        N  0.17533052  0.31187987  0.39041998    -0.27300
C260        C  0.19318470  0.29745256  0.41321405    -0.02500
C261        C  0.21702812  0.29569963  0.40225546     0.06100
C262        C  0.21236390  0.30980886  0.37198036     0.04200
H263        H  0.18843730  0.28846001  0.43486454     0.09300
H264        H  0.22606184  0.31263790  0.35502575     0.08100
C265        C  0.98590307  0.34177813  0.44412177    -0.04300
C266        C  0.99247757  0.32440539  0.43140717    -0.01500
C267        C  0.01424571  0.32290918  0.41496264     0.03500
C268        C  0.02986824  0.33872347  0.41157649    -0.04300
C269        C  0.02374798  0.35601622  0.42509574    -0.01400
C270        C  0.00138537  0.35760323  0.44028474     0.03500
C271        C  0.97738361  0.30794980  0.43603179     0.38200
C272        C  0.04133679  0.37216524  0.42512723     0.38200
C273        C  0.99345332  0.37572261  0.45008454     0.36600
C274        C  0.02003734  0.30510856  0.40062110     0.36600
N275        N  0.98705953  0.39019289  0.45764870    -0.38200
N276        N  0.02468663  0.29091415  0.38921227    -0.38200
N277        N  0.05549122  0.38503313  0.42552139    -0.37700
N278        N  0.96538240  0.29478346  0.43961056    -0.37700
C279        C  0.91549748  0.41798192  0.66126581    -0.04300
C280        C  0.93290377  0.43333637  0.65983665    -0.01500
C281        C  0.94327639  0.44692874  0.69437323     0.03500
C282        C  0.93412189  0.44615812  0.72852400    -0.04300
C283        C  0.91431730  0.43174847  0.72756477    -0.01400
C284        C  0.90581083  0.41741483  0.69498603     0.03500
C285        C  0.93930695  0.43557147  0.62196429     0.38200
C286        C  0.90248388  0.43176416  0.75999204     0.38200
C287        C  0.88828014  0.40177569  0.69774922     0.36600
C288        C  0.96458161  0.46123420  0.69581530     0.36600
N289        N  0.87436598  0.38931901  0.70024560    -0.38200
N290        N  0.98175519  0.47253849  0.69706607    -0.38200
N291        N  0.89288327  0.43188463  0.78565184    -0.37700
N292        N  0.94412912  0.43744812  0.59152579    -0.37700
C293        C  0.10628712  0.43520535  0.15052687    -0.04300
C294        C  0.10179068  0.43645479  0.18925118    -0.01500
C295        C  0.10916596  0.42145362  0.21922318     0.03500
C296        C  0.11959516  0.40464732  0.20970964    -0.04300
C297        C  0.12535830  0.40360229  0.17213256    -0.01400
C298        C  0.11922968  0.41891161  0.14315379     0.03500
C299        C  0.08849979  0.45289641  0.19786037     0.38200
C300        C  0.13640485  0.38658940  0.16198962     0.38200
C301        C  0.12653735  0.41792879  0.10589711     0.36600
C302        C  0.10659030  0.42355033  0.26055986     0.36600
N303        N  0.13236490  0.41719952  0.07618421    -0.38200
N304        N  0.10461684  0.42530092  0.29354095    -0.38200
N305        N  0.14521377  0.37304279  0.15374296    -0.37700
N306        N  0.07805744  0.46586919  0.20561707    -0.37700
C307        C  0.04394549  0.45908863  0.98956193    -0.04300
C308        C  0.01141334  0.45637225  0.97313219    -0.01500
C309        C  0.99015754  0.45752981  0.92577537     0.03500
C310        C  0.00138657  0.46152203  0.89494892    -0.04300
C311        C  0.03404509  0.46280979  0.91100491    -0.01400
C312        C  0.05528708  0.46150097  0.95817413     0.03500
C313        C  0.99966549  0.45345953  0.00507851     0.38200
C314        C  0.04566012  0.46625931  0.87907533     0.38200
C315        C  0.08885309  0.46321059  0.97471110     0.36600
C316        C  0.95661535  0.45544888  0.90881598     0.36600
N317        N  0.11564260  0.46455669  0.98806083    -0.38200
N318        N  0.92982983  0.45375453  0.89506036    -0.38200
N319        N  0.05488492  0.46901018  0.85356224    -0.37700
N320        N  0.99028466  0.45111972  0.03057029    -0.37700
C321        C  0.24017852  0.28051185  0.41653081    -0.04300
C322        C  0.24070323  0.26852507  0.38348194    -0.01500
C323        C  0.26027536  0.25289857  0.39738006     0.03500
C324        C  0.27980764  0.24929865  0.44442880    -0.04300
C325        C  0.28029647  0.26176771  0.47742332    -0.01400
C326        C  0.26033634  0.27721647  0.46350497     0.03500
C327        C  0.22022390  0.27184031  0.33510965     0.38200
C328        C  0.30217522  0.25915273  0.52567275     0.38200
C329        C  0.26115079  0.29000720  0.49760080     0.36600
C330        C  0.25935001  0.24015842  0.36312392     0.36600
N331        N  0.26190289  0.30020261  0.52486073    -0.38200
N332        N  0.25854628  0.23000849  0.33574750    -0.38200
N333        N  0.31970328  0.25710903  0.56413098    -0.37700
N334        N  0.20396247  0.27451008  0.29652197    -0.37700
C335        C  0.72180800  0.27631650  0.41428009    -0.04300
C336        C  0.74427108  0.27941538  0.46071857    -0.01500
C337        C  0.76569968  0.29416771  0.47289773     0.03500
C338        C  0.76513785  0.30572060  0.43868772    -0.04300
C339        C  0.74202292  0.30306718  0.39260912    -0.01400
C340        C  0.72032606  0.28846195  0.38041926     0.03500
C341        C  0.74658317  0.26690346  0.49592746     0.38200
C342        C  0.74020400  0.31564061  0.35782480     0.38200
C343        C  0.69603979  0.28624538  0.33311747     0.36600
C344        C  0.78919609  0.29690504  0.52049301     0.36600
N345        N  0.67666760  0.28454939  0.29536375    -0.38200
N346        N  0.80782210  0.29907295  0.55849564    -0.38200
N347        N  0.73877077  0.32573667  0.33022749    -0.37700
N348        N  0.74851182  0.25695237  0.52408767    -0.37700
C349        C  0.49846617  0.19810706  0.48530223    -0.04300
C350        C  0.51566991  0.18225407  0.48657299    -0.01500
C351        C  0.53902319  0.18326681  0.47318171     0.03500
C352        C  0.54439290  0.19993759  0.45645038    -0.04300
C353        C  0.52723767  0.21583421  0.45540772    -0.01400
C354        C  0.50486103  0.21498843  0.47070080     0.03500
C355        C  0.50847558  0.16466462  0.49973027     0.38200
C356        C  0.53148312  0.23294823  0.43687504     0.38200
C357        C  0.48888656  0.23164004  0.47228263     0.36600
C358        C  0.55805864  0.16719987  0.47779907     0.36600
N359        N  0.47628114  0.24493221  0.47376591    -0.38200
N360        N  0.57333906  0.15440820  0.48174102    -0.38200
N361        N  0.53470030  0.24662548  0.42203977    -0.37700
N362        N  0.50263475  0.15061051  0.50995848    -0.37700
C363        C  0.61574265  0.14806759  0.21359046    -0.04300
C364        C  0.64064841  0.14016706  0.20888487    -0.01500
C365        C  0.63441376  0.12615791  0.17600341     0.03500
C366        C  0.60330380  0.11972562  0.14806293    -0.04300
C367        C  0.57838740  0.12793729  0.15223727    -0.01400
C368        C  0.58449515  0.14226662  0.18401166     0.03500
C369        C  0.67286876  0.14589872  0.23897769     0.38200
C370        C  0.54635347  0.12124426  0.12511422     0.38200
C371        C  0.55827133  0.15126226  0.18542969     0.36600
C372        C  0.66008240  0.11839314  0.17093718     0.36600
N373        N  0.53729618  0.15839319  0.18640756    -0.38200
N374        N  0.68062369  0.11221254  0.16703527    -0.38200
N375        N  0.52072292  0.11606239  0.10356738    -0.37700
N376        N  0.69857946  0.15047088  0.26296860    -0.37700
C377        C  0.41428439  0.10360209  0.74180012    -0.04300
C378        C  0.39778798  0.11927950  0.74392940    -0.01500
C379        C  0.39258992  0.13427956  0.71445035     0.03500
C380        C  0.40317004  0.13352194  0.68180597    -0.04300
C381        C  0.41771699  0.11729995  0.67762198    -0.01400
C382        C  0.42364763  0.10254672  0.70784036     0.03500
C383        C  0.38635978  0.12001801  0.77679728     0.38200
C384        C  0.42651473  0.11561440  0.64195166     0.38200
C385        C  0.44065191  0.08662612  0.70494310     0.36600
C386        C  0.37785713  0.15083735  0.71951718     0.36600
N387        N  0.45407011  0.07396531  0.70213084    -0.38200
N388        N  0.36619677  0.16405312  0.72375155    -0.38200
N389        N  0.43362018  0.11422030  0.61362930    -0.37700
N390        N  0.37721895  0.12056901  0.80298035    -0.37700
C391        C  0.48545834  0.08653043  0.90427298    -0.04300
C392        C  0.48143488  0.08296561  0.94261295    -0.01500
C393        C  0.50682766  0.08536618  0.98714192     0.03500
C394        C  0.53628051  0.09155349  0.99357564    -0.04300
C395        C  0.53989577  0.09602594  0.95541754    -0.01400
C396        C  0.51461235  0.09340947  0.91078900     0.03500
C397        C  0.45136548  0.07634090  0.93617698     0.38200
C398        C  0.57015853  0.10239124  0.96219184     0.38200
C399        C  0.51927785  0.09662270  0.87166005     0.36600
C400        C  0.50308968  0.08063409  0.02639764     0.36600
N401        N  0.52293418  0.09911114  0.84036265    -0.38200
N402        N  0.50010834  0.07672466  0.05761975    -0.38200
N403        N  0.59435455  0.10744869  0.96774565    -0.37700
N404        N  0.42739961  0.07100116  0.93097033    -0.37700
C405        C  0.52694536  0.83580424  0.48056399    -0.04300
C406        C  0.55955909  0.83245015  0.50627483    -0.01500
C407        C  0.57868853  0.83359857  0.48538908     0.03500
C408        C  0.56513552  0.83745000  0.43810722    -0.04300
C409        C  0.53229135  0.84011029  0.41202179    -0.01400
C410        C  0.51336652  0.83964752  0.43330559     0.03500
C411        C  0.57337514  0.82724103  0.55401333     0.38200
C412        C  0.51768232  0.84278826  0.36290961     0.38200
C413        C  0.48004937  0.84374112  0.40661041     0.36600
C414        C  0.61247550  0.83143162  0.51321459     0.36600
N415        N  0.45351416  0.84705803  0.38521291    -0.38200
N416        N  0.63941424  0.82972237  0.53556617    -0.38200
N417        N  0.50597194  0.84484062  0.32372773    -0.37700
N418        N  0.58435578  0.82296719  0.59199153    -0.37700
C419        C  0.43791014  0.99888880  0.79056313    -0.04300
C420        C  0.46002477  0.01041778  0.78712880    -0.01500
C421        C  0.45658520  0.02963786  0.78658806     0.03500
C422        C  0.43109389  0.03746477  0.78972878    -0.04300
C423        C  0.40753641  0.02596093  0.78922267    -0.01400
C424        C  0.41094531  0.00663862  0.78962087     0.03500
C425        C  0.48798756  0.00257378  0.78864953     0.38200
C426        C  0.38096509  0.03402628  0.79131170     0.38200
C427        C  0.38784254  0.99474782  0.79201537     0.36600
C428        C  0.48070589  0.04141391  0.78655385     0.36600
N429        N  0.36941215  0.98523574  0.79390782    -0.38200
N430        N  0.50011658  0.05076135  0.78695280    -0.38200
N431        N  0.35977599  0.04049325  0.79300446    -0.37700
N432        N  0.51054739  0.99644805  0.79046699    -0.37700
C433        C  0.45088224  0.93258500  0.75824221    -0.04300
C434        C  0.43437557  0.91653607  0.75770722    -0.01500
C435        C  0.43203358  0.90148223  0.72925863     0.03500
C436        C  0.44548408  0.90253272  0.69993177    -0.04300
C437        C  0.46063985  0.91904726  0.69896808    -0.01400
C438        C  0.46402396  0.93375847  0.72878721     0.03500
C439        C  0.41942935  0.91563109  0.78619816     0.38200
C440        C  0.47156780  0.92139467  0.66584137     0.38200
C441        C  0.48185710  0.94992197  0.72985235     0.36600
C442        C  0.41631542  0.88483160  0.73128084     0.36600
N443        N  0.49629170  0.96265588  0.73033899    -0.38200
N444        N  0.40358489  0.87164348  0.73297765    -0.38200
N445        N  0.48011968  0.92335495  0.63926523    -0.37700
N446        N  0.40744864  0.91501586  0.80883773    -0.37700
C447        C  0.60976336  0.01347528  0.11996619    -0.04300
C448        C  0.62902150  0.02292143  0.10595759    -0.01500
C449        C  0.62895603  0.04232805  0.10507297     0.03500
C450        C  0.60981154  0.05231648  0.11845948    -0.04300
C451        C  0.59309692  0.04292329  0.13682092    -0.01400
C452        C  0.59245458  0.02353442  0.13656642     0.03500
C453        C  0.64721767  0.01264445  0.08956882     0.38200
C454        C  0.57457101  0.05325178  0.15261509     0.38200
C455        C  0.57140851  0.01403842  0.14887694     0.36600
C456        C  0.64721677  0.05208045  0.08809810     0.36600
N457        N  0.55407666  0.00664083  0.15793618    -0.38200
N458        N  0.66177480  0.05993158  0.07463806    -0.38200
N459        N  0.55999141  0.06158956  0.16536909    -0.37700
N460        N  0.66162884  0.00442783  0.07632245    -0.37700
C461        C  0.62546743  0.94762466  0.17390145    -0.04300
C462        C  0.64113022  0.93219742  0.16848255    -0.01500
C463        C  0.65058259  0.91752704  0.19993175     0.03500
C464        C  0.64542997  0.91839766  0.23820716    -0.04300
C465        C  0.63252589  0.93469769  0.24581672    -0.01400
C466        C  0.62181384  0.94894900  0.21327695     0.03500
C467        C  0.64724739  0.93130473  0.13005351     0.38200
C468        C  0.63042653  0.93705431  0.28745282     0.38200
C469        C  0.60553298  0.96451705  0.21948137     0.36600
C470        C  0.66414338  0.90126114  0.19110614     0.36600
N471        N  0.59257043  0.97682573  0.22490805    -0.38200
N472        N  0.67499522  0.88837890  0.18368676    -0.38200
N473        N  0.62865993  0.93905683  0.32053760    -0.37700
N474        N  0.65208177  0.93057777  0.09938937    -0.37700
C475        C  0.55020240  0.96321261  0.01072764    -0.04300
C476        C  0.51803396  0.96293799  0.99844673    -0.01500
C477        C  0.49497332  0.96043435  0.95226903     0.03500
C478        C  0.50403226  0.95823273  0.91819825    -0.04300
C479        C  0.53634380  0.95739263  0.93102680    -0.01400
C480        C  0.55935501  0.95973622  0.97727258     0.03500
C481        C  0.50873043  0.96582772  0.03323116     0.38200
C482        C  0.54592512  0.95538819  0.89628376     0.38200
C483        C  0.59250666  0.95917934  0.99035656     0.36600
C484        C  0.46186760  0.96066808  0.93952492     0.36600
N485        N  0.61896918  0.95867133  0.00090031    -0.38200
N486        N  0.43544288  0.96087937  0.92928114    -0.38200
N487        N  0.55342026  0.95384358  0.86840588    -0.37700
N488        N  0.50143622  0.96810640  0.06112878    -0.37700
C489        C  0.27945532  0.75180704  0.46618743    -0.04300
C490        C  0.30271202  0.75537736  0.51193572    -0.01500
C491        C  0.32301418  0.77060198  0.52229732     0.03500
C492        C  0.32003899  0.78242448  0.48709334    -0.04300
C493        C  0.29665600  0.77902834  0.44152351    -0.01400
C494        C  0.27628471  0.76381259  0.43108049     0.03500
C495        C  0.30644961  0.74312289  0.54837266     0.38200
C496        C  0.29314476  0.79145977  0.40551976     0.38200
C497        C  0.25122835  0.76101903  0.38450643     0.36600
C498        C  0.34783628  0.77364894  0.56897368     0.36600
N499        N  0.23115927  0.75887926  0.34736904    -0.38200
N500        N  0.36770324  0.77605284  0.60613683    -0.38200
N501        N  0.29038550  0.80141556  0.37690808    -0.37700
N502        N  0.30941783  0.73342364  0.57754274    -0.37700
C503        C  0.80913117  0.75809327  0.44229676    -0.04300
C504        C  0.77702067  0.75360595  0.41504421    -0.01500
C505        C  0.75433524  0.76766778  0.39714910     0.03500
C506        C  0.76358597  0.78633280  0.40674495    -0.04300
C507        C  0.79580631  0.79083318  0.43316248    -0.01400
C508        C  0.81850905  0.77675717  0.45090789     0.03500
C509        C  0.76731191  0.73449769  0.40495262     0.38200
C510        C  0.80555826  0.80988631  0.44440373     0.38200
C511        C  0.85136053  0.78151676  0.48020091     0.36600
C512        C  0.72143057  0.76289073  0.36834048     0.36600
N513        N  0.87754411  0.78530731  0.50365568    -0.38200
N514        N  0.69519067  0.75909015  0.34539152    -0.38200
N515        N  0.81340586  0.82506571  0.45351285    -0.37700
N516        N  0.75953659  0.71926586  0.39689510    -0.37700
C517        C  0.03948761  0.70078005  0.52057254    -0.04300
C518        C  0.05165201  0.68279888  0.52437083    -0.01500
C519        C  0.07572244  0.67932370  0.51324745     0.03500
C520        C  0.08726825  0.69365983  0.49704300    -0.04300
C521        C  0.07492025  0.71161345  0.49291828    -0.01400
C522        C  0.05151688  0.71519490  0.50531321     0.03500
C523        C  0.03874215  0.66764175  0.53817066     0.38200
C524        C  0.08533920  0.72637967  0.47432419     0.38200
C525        C  0.04042757  0.73388627  0.50340924     0.36600
C526        C  0.08910782  0.66102377  0.51960870     0.36600
N527        N  0.03170937  0.74880906  0.50200225    -0.38200
N528        N  0.09980125  0.64643279  0.52484316    -0.38200
N529        N  0.09354254  0.73818804  0.45945238    -0.37700
N530        N  0.02847515  0.65551884  0.54910883    -0.37700
C531        C  0.11470155  0.54097304  0.12160921    -0.04300
C532        C  0.09417636  0.53225456  0.13431959    -0.01500
C533        C  0.09059331  0.51299823  0.13073692     0.03500
C534        C  0.10808047  0.50237702  0.11545556    -0.04300
C535        C  0.13051678  0.51099008  0.10641074    -0.01400
C536        C  0.13363537  0.53030425  0.10911867     0.03500
C537        C  0.07475705  0.54325067  0.14729394     0.38200
C538        C  0.14899807  0.50004630  0.09169464     0.38200
C539        C  0.15492127  0.53932982  0.09648927     0.36600
C540        C  0.06668009  0.50435876  0.13845855     0.36600
N541        N  0.17174656  0.54661158  0.08623225    -0.38200
N542        N  0.04718017  0.49769306  0.14402375    -0.38200
N543        N  0.16375040  0.49132320  0.07993901    -0.37700
N544        N  0.05926204  0.55207545  0.15748666    -0.37700
C545        C  0.12913462  0.60591628  0.17942156    -0.04300
C546        C  0.16172162  0.60817528  0.20966993    -0.01500
C547        C  0.17229898  0.61990484  0.24827322     0.03500
C548        C  0.15040894  0.62989056  0.25627231    -0.04300
C549        C  0.11789418  0.62811712  0.22498762    -0.01400
C550        C  0.10732544  0.61581505  0.18767424     0.03500
C551        C  0.18444083  0.59840334  0.20112927     0.38200
C552        C  0.09505075  0.63931770  0.23017707     0.38200
C553        C  0.07379071  0.61279410  0.15911366     0.36600
C554        C  0.20567026  0.62108982  0.28062547     0.36600
N555        N  0.04696400  0.61050931  0.13693823    -0.38200
N556        N  0.23229870  0.62196358  0.30645873    -0.38200
N557        N  0.07673707  0.64824785  0.23404593    -0.37700
N558        N  0.20254929  0.59057673  0.19435692    -0.37700
C559        C  0.95196599  0.55031922  0.79393740    -0.04300
C560        C  0.92542538  0.54047418  0.78884056    -0.01500
C561        C  0.92444635  0.52113245  0.78416633     0.03500
C562        C  0.94997713  0.51172157  0.78454985    -0.04300
C563        C  0.97498009  0.52176129  0.78504233    -0.01400
C564        C  0.97604622  0.54102303  0.78991602     0.03500
C565        C  0.90007397  0.55013372  0.79101552     0.38200
C566        C  0.00042962  0.51214645  0.78291492     0.38200
C567        C  0.00286394  0.55120456  0.79352050     0.36600
C568        C  0.89809199  0.51079071  0.78150212     0.36600
N569        N  0.02432485  0.55931500  0.79665785    -0.38200
N570        N  0.87708931  0.50245864  0.77926312    -0.38200
N571        N  0.02072932  0.50450348  0.78117773    -0.37700
N572        N  0.87981212  0.55785392  0.79268389    -0.37700
C573        C  0.92994434  0.64706395  0.69788707    -0.04300
C574        C  0.94548645  0.63133454  0.69368043    -0.01500
C575        C  0.95378941  0.61687967  0.72524548     0.03500
C576        C  0.94562679  0.61764783  0.76049998    -0.04300
C577        C  0.92852651  0.63292199  0.76321709    -0.01400
C578        C  0.92033434  0.64748147  0.73157654     0.03500
C579        C  0.95243919  0.62981216  0.65611528     0.38200
C580        C  0.91975517  0.63378014  0.79897043     0.38200
C581        C  0.90246154  0.66298204  0.73416308     0.36600
C582        C  0.97212645  0.60162635  0.72253815     0.36600
N583        N  0.88788346  0.67524087  0.73596231    -0.38200
N584        N  0.98677709  0.58953499  0.72016513    -0.38200
N585        N  0.91303180  0.63450388  0.82778194    -0.37700
N586        N  0.95782105  0.62857397  0.62603381    -0.37700
C587        C  0.01263261  0.59381906  0.92026817    -0.04300
C588        C  0.00458424  0.59203616  0.95535413    -0.01500
C589        C  0.02836595  0.59019707  0.00121292     0.03500
C590        C  0.06038979  0.59077853  0.01245046    -0.04300
C591        C  0.06846763  0.59343323  0.97760702    -0.01400
C592        C  0.04463149  0.59485732  0.93155363     0.03500
C593        C  0.97172399  0.59116080  0.94386986     0.38200
C594        C  0.10129796  0.59341950  0.98887691     0.38200
C595        C  0.05297374  0.59605192  0.89541408     0.36600
C596        C  0.01982172  0.58599289  0.03618276     0.36600
N597        N  0.05948927  0.59689878  0.86642471    -0.38200
N598        N  0.01279582  0.58226066  0.06365700    -0.38200
N599        N  0.12750131  0.59328852  0.99790227    -0.37700
N600        N  0.94550847  0.59046896  0.93467110    -0.37700
loop_ 
_geom_bond_atom_site_label_1 
_geom_bond_atom_site_label_2 
_geom_bond_distance 
_geom_bond_site_symmetry_2 
_ccdc_geom_bond_type 
C1            C2   1.409       .  A
C1            C6   1.408       .  A
C1          C576   1.491       .  S
C2            C3   1.403       .  A
C2            H7   1.084       .  S
C3            C4   1.398       .  A
C3          C587   1.484   1_655  S
C4            C5   1.398       .  A
C4            H8   1.085       .  S
C5            C6   1.399       .  A
C5          C559   1.482       .  S
C6            H9   1.084       .  S
C10          C11   1.406       .  A
C10          C15   1.411       .  A
C10         C545   1.492       .  S
C11          C12   1.400       .  A
C11          H16   1.084       .  S
C12          C13   1.397       .  A
C12         C531   1.479       .  S
C13          C14   1.396       .  A
C13          H17   1.085       .  S
C14          C15   1.403       .  A
C14         C590   1.484       .  S
C15          H18   1.083       .  S
N19          N20   1.319       .  A
N19          C23   1.344       .  A
N19         Cu27   2.063       .  S
N20          C21   1.343   1_655  A
N20         Cu26   2.061       .  S
C21          C22   1.384       .  A
C21          H24   1.081       .  S
C22          C23   1.385   1_455  A
C22         C517   1.486       .  S
C23          H25   1.081       .  S
Cu26         N29   2.061       .  S
Cu27         N37   2.064       .  S
Cu28         N30   2.084       .  S
Cu28         N36   2.085       .  S
N29          N30   1.322       .  A
N29          C33   1.339       .  A
N30          C31   1.351       .  A
C31          C32   1.388       .  A
C31          H34   1.082       .  S
C32          C33   1.380       .  A
C32         C573   1.487       .  S
C33          H35   1.081       .  S
N36          N37   1.324       .  A
N36          C40   1.346       .  A
N37          C38   1.342       .  A
C38          C39   1.379       .  A
C38          H41   1.083       .  S
C39          C40   1.384       .  A
C39         C503   1.482       .  S
C40          H42   1.082       .  S
N43          N44   1.319       .  A
N43          C47   1.342       .  A
N43         Cu51   2.053       .  S
N44          C45   1.346       .  A
N44         Cu50   2.073       .  S
C45          C46   1.387       .  A
C45          H48   1.079       .  S
C46          C47   1.382       .  A
C46         C520   1.486       .  S
C47          H49   1.080       .  S
Cu50         N53   2.074       .  S
Cu51         N61   2.054       .  S
Cu52         N54   2.082       .  S
Cu52         N60   2.081       .  S
N53          N54   1.323       .  A
N53          C57   1.342       .  A
N54          C55   1.347       .  A
C55          C56   1.386       .  A
C55          H58   1.083       .  S
C56          C57   1.384       .  A
C56         C548   1.491       .  S
C57          H59   1.082       .  S
N60          N61   1.322       .  A
N60          C64   1.346       .  A
N61          C62   1.341       .  A
C62          C63   1.379       .  A
C62          H65   1.082       .  S
C63          C64   1.386       .  A
C63         C489   1.483       .  S
C64          H66   1.083       .  S
C67          C68   1.407       .  A
C67          C72   1.410       .  A
C67         C461   1.494       .  S
C68          C69   1.399       .  A
C68          H73   1.084       .  S
C69          C70   1.399       .  A
C69         C475   1.483       .  S
C70          C71   1.400       .  A
C70          H74   1.084       .  S
C71          C72   1.404       .  A
C71         C447   1.485   1_565  S
C72          H75   1.083       .  S
C76          C77   1.409       .  A
C76          C81   1.407       .  A
C76         C433   1.490       .  S
C77          C78   1.403       .  A
C77          H82   1.083       .  S
C78          C79   1.398       .  A
C78         C419   1.482       .  S
C79          C80   1.397       .  A
C79          H83   1.085       .  S
C80          C81   1.403       .  A
C80         C478   1.487       .  S
C81          H84   1.084       .  S
N85          N86   1.318       .  A
N85          C89   1.342       .  A
N85         Cu93   2.050       .  S
N86          C87   1.344       .  A
N86         Cu92   2.067       .  S
C87          C88   1.386       .  A
C87          H90   1.079       .  S
C88          C89   1.383       .  A
C88         C408   1.485       .  S
C89          H91   1.080       .  S
Cu92         N95   2.069       .  S
Cu93        N103   2.051       .  S
Cu94         N96   2.090       .  S
Cu94        N102   2.089       .  S
N95          N96   1.322       .  A
N95          C99   1.341       .  A
N96          C97   1.349       .  A
C97          C98   1.392       .  A
C97         H100   1.081       .  S
C98          C99   1.385       .  A
C98         C464   1.499       .  S
C99         H101   1.081       .  S
N102        N103   1.323       .  A
N102        C106   1.348       .  A
N103        C104   1.339       .  A
C104        C105   1.377       .  A
C104        H107   1.083       .  S
C105        C106   1.388       .  A
C105        C506   1.483       .  S
C106        H108   1.084       .  S
N109        N110   1.322       .  A
N109        C113   1.341       .  A
N109       Cu117   2.051       .  S
N110        C111   1.347       .  A
N110       Cu116   2.085       .  S
C111        C112   1.387       .  A
C111        H114   1.079       .  S
C112        C113   1.379       .  A
C112        C405   1.483       .  S
C113        H115   1.079       .  S
Cu116       N119   2.085       .  S
Cu117       N127   2.051       .  S
Cu118       N120   2.069       .  S
Cu118       N126   2.069       .  S
N119        N120   1.322       .  A
N119        C123   1.346       .  A
N120        C121   1.344       .  A
C121        C122   1.385       .  A
C121        H124   1.081       .  S
C122        C123   1.390       .  A
C122        C436   1.497       .  S
C123        H125   1.082       .  S
N126        N127   1.320       .  A
N126        C130   1.344       .  A
N127        C128   1.342       .  A
C128        C129   1.378       .  A
C128        H131   1.082       .  S
C129        C130   1.383       .  A
C129        C492   1.477       .  S
C130        H132   1.082       .  S
C133        C134   1.409       .  A
C133        C138   1.405       .  A
C133        C377   1.490       .  S
C134        C135   1.402       .  A
C134        H139   1.083       .  S
C135        C136   1.400       .  A
C135        C422   1.483       .  S
C136        C137   1.399       .  A
C136        H140   1.085       .  S
C137        C138   1.399       .  A
C137        C391   1.486       .  S
C138        H141   1.084       .  S
C142        C143   1.409       .  A
C142        C147   1.410       .  A
C142        C366   1.493       .  S
C143        C144   1.399       .  A
C143        H148   1.083       .  S
C144        C145   1.394       .  A
C144        C394   1.481   1_554  S
C145        C146   1.397       .  A
C145        H149   1.085       .  S
C146        C147   1.404       .  A
C146        C450   1.483       .  S
C147        H150   1.084       .  S
N151        N152   1.319       .  A
N151        C155   1.343       .  A
N151       Cu159   2.055       .  S
N152        C153   1.343       .  A
N152       Cu158   2.064       .  S
C153        C154   1.385       .  A
C153        H156   1.080       .  S
C154        C155   1.383       .  A
C154        C352   1.485       .  S
C155        H157   1.082       .  S
Cu158       N161   2.065       .  S
Cu159       N169   2.057       .  S
Cu160       N162   2.079       .  S
Cu160       N168   2.079       .  S
N161        N162   1.322       .  A
N161        C165   1.340       .  A
N162        C163   1.348       .  A
C163        C164   1.387       .  A
C163        H166   1.083       .  S
C164        C165   1.382       .  A
C164        C363   1.490       .  S
C165        H167   1.082       .  S
N168        N169   1.323       .  A
N168        C172   1.345       .  A
N169        C170   1.341       .  A
C170        C171   1.380       .  A
C170        H173   1.083       .  S
C171        C172   1.385       .  A
C171        C335   1.483       .  S
C172        H174   1.084       .  S
N175        N176   1.320       .  A
N175        C179   1.342       .  A
N175       Cu183   2.056       .  S
N176        C177   1.344       .  A
N176       Cu182   2.066       .  S
C177        C178   1.384       .  A
C177        H180   1.081       .  S
C178        C179   1.382       .  A
C178        C349   1.482       .  S
C179        H181   1.080       .  S
Cu182       N185   2.066       .  S
Cu183       N193   2.056       .  S
Cu184       N186   2.079       .  S
Cu184       N192   2.079       .  S
N185        N186   1.322       .  A
N185        C189   1.341       .  A
N186        C187   1.347       .  A
C187        C188   1.386       .  A
C187        H190   1.082       .  S
C188        C189   1.383       .  A
C188        C380   1.488       .  S
C189        H191   1.081       .  S
N192        N193   1.322       .  A
N192        C196   1.345       .  A
N193        C194   1.342       .  A
C194        C195   1.380       .  A
C194        H197   1.082       .  S
C195        C196   1.386       .  A
C195        C324   1.484       .  S
C196        H198   1.083       .  S
C199        C200   1.409       .  A
C199        C204   1.410       .  A
C199        C293   1.495       .  S
C200        C201   1.401       .  A
C200        H205   1.083       .  S
C201        C202   1.397       .  A
C201        C534   1.481       .  S
C202        C203   1.398       .  A
C202        H206   1.085       .  S
C203        C204   1.402       .  A
C203        C307   1.486   1_554  S
C204        H207   1.083       .  S
C208        C209   1.408       .  A
C208        C213   1.408       .  A
C208        C282   1.488       .  S
C209        C210   1.400       .  A
C209        H214   1.084       .  S
C210        C211   1.397       .  A
C210        C310   1.482   1_655  S
C211        C212   1.399       .  A
C211        H215   1.085       .  S
C212        C213   1.401       .  A
C212        C562   1.481       .  S
C213        H216   1.084       .  S
N217        N218   1.321       .  A
N217        C221   1.345       .  A
N217       Cu225   2.068       .  S
N218        C219   1.343       .  A
N218       Cu224   2.072       .  S
C219        C220   1.385       .  A
C219        H222   1.080       .  S
C220        C221   1.385       .  A
C220        C265   1.488       .  S
C221        H223   1.081       .  S
Cu224       N227   2.072       .  S
Cu225       N235   2.068       .  S
Cu226       N228   2.064       .  S
Cu226       N234   2.064       .  S
N227        N228   1.321       .  A
N227        C231   1.342       .  A
N228        C229   1.345       .  A
C229        C230   1.385       .  A
C229        H232   1.082       .  S
C230        C231   1.386       .  A
C230        C279   1.490       .  S
C231        H233   1.082       .  S
N234        N235   1.323       .  A
N234        C238   1.344       .  A
N235        C236   1.342       .  A
C236        C237   1.381       .  A
C236        H239   1.081       .  S
C237        C238   1.381       .  A
C237        C338   1.479       .  S
C238        H240   1.083       .  S
N241        N242   1.320       .  A
N241        C245   1.346       .  A
N241       Cu249   2.066       .  S
N242        C243   1.343       .  A
N242       Cu248   2.063       .  S
C243        C244   1.383       .  A
C243        H246   1.079       .  S
C244        C245   1.385       .  A
C244        C268   1.485       .  S
C245        H247   1.080       .  S
Cu248       N251   2.063       .  S
Cu249       N259   2.067       .  S
Cu250       N252   2.083       .  S
Cu250       N258   2.084       .  S
N251        N252   1.321       .  A
N251        C255   1.340       .  A
N252        C253   1.349       .  A
C253        C254   1.389       .  A
C253        H256   1.082       .  S
C254        C255   1.382       .  A
C254        C296   1.491       .  S
C255        H257   1.082       .  S
N258        N259   1.324       .  A
N258        C262   1.346       .  A
N259        C260   1.342       .  A
C260        C261   1.379       .  A
C260        H263   1.082       .  S
C261        C262   1.384       .  A
C261        C321   1.482       .  S
C262        H264   1.083       .  S
C265        C266   1.415       .  A
C265        C270   1.415   1_655  A
C266        C267   1.412   1_655  A
C266        C271   1.451       .  S
C267        C268   1.413       .  A
C267        C274   1.451       .  S
C268        C269   1.413       .  A
C269        C270   1.408       .  A
C269        C272   1.452       .  S
C270        C273   1.452   1_455  S
C271        N278   1.157       .  T
C272        N277   1.157       .  T
C273        N275   1.157       .  T
C274        N276   1.157       .  T
C279        C280   1.415       .  A
C279        C284   1.416       .  A
C280        C281   1.409       .  A
C280        C285   1.452       .  S
C281        C282   1.412       .  A
C281        C288   1.451       .  S
C282        C283   1.412       .  A
C283        C284   1.411       .  A
C283        C286   1.451       .  S
C284        C287   1.451       .  S
C285        N292   1.157       .  T
C286        N291   1.157       .  T
C287        N289   1.157       .  T
C288        N290   1.157       .  T
C293        C294   1.415       .  A
C293        C298   1.416       .  A
C294        C295   1.409       .  A
C294        C299   1.450       .  S
C295        C296   1.415       .  A
C295        C302   1.453       .  S
C296        C297   1.414       .  A
C297        C298   1.413       .  A
C297        C300   1.450       .  S
C298        C301   1.451       .  S
C299        N306   1.157       .  T
C300        N305   1.157       .  T
C301        N303   1.157       .  T
C302        N304   1.157       .  T
C307        C308   1.413       .  A
C307        C312   1.413       .  A
C308        C309   1.412   1_455  A
C308        C313   1.450   1_456  S
C309        C310   1.411   1_655  A
C309        C316   1.450       .  S
C310        C311   1.410       .  A
C311        C312   1.408       .  A
C311        C314   1.451       .  S
C312        C315   1.451       .  S
C313        N320   1.157       .  T
C314        N319   1.157       .  T
C315        N317   1.157       .  T
C316        N318   1.157       .  T
C321        C322   1.412       .  A
C321        C326   1.412       .  A
C322        C323   1.410       .  A
C322        C327   1.451       .  S
C323        C324   1.414       .  A
C323        C330   1.451       .  S
C324        C325   1.414       .  A
C325        C326   1.409       .  A
C325        C328   1.452       .  S
C326        C329   1.451       .  S
C327        N334   1.157       .  T
C328        N333   1.157       .  T
C329        N331   1.157       .  T
C330        N332   1.157       .  T
C335        C336   1.415       .  A
C335        C340   1.413       .  A
C336        C337   1.409       .  A
C336        C341   1.452       .  S
C337        C338   1.412       .  A
C337        C344   1.452       .  S
C338        C339   1.410       .  A
C339        C340   1.408       .  A
C339        C342   1.451       .  S
C340        C343   1.451       .  S
C341        N348   1.157       .  T
C342        N347   1.157       .  T
C343        N345   1.157       .  T
C344        N346   1.157       .  T
C349        C350   1.412       .  A
C349        C354   1.412       .  A
C350        C351   1.409       .  A
C350        C355   1.451       .  S
C351        C352   1.414       .  A
C351        C358   1.451       .  S
C352        C353   1.415       .  A
C353        C354   1.409       .  A
C353        C356   1.452       .  S
C354        C357   1.452       .  S
C355        N362   1.157       .  T
C356        N361   1.157       .  T
C357        N359   1.157       .  T
C358        N360   1.157       .  T
C363        C364   1.415       .  A
C363        C368   1.414       .  A
C364        C365   1.414       .  A
C364        C369   1.451       .  S
C365        C366   1.415       .  A
C365        C372   1.451       .  S
C366        C367   1.415       .  A
C367        C368   1.408       .  A
C367        C370   1.452       .  S
C368        C371   1.453       .  S
C369        N376   1.157       .  T
C370        N375   1.157       .  T
C371        N373   1.157       .  T
C372        N374   1.157       .  T
C377        C378   1.414       .  A
C377        C382   1.414       .  A
C378        C379   1.412       .  A
C378        C383   1.451       .  S
C379        C380   1.414       .  A
C379        C386   1.451       .  S
C380        C381   1.415       .  A
C381        C382   1.408       .  A
C381        C384   1.452       .  S
C382        C385   1.451       .  S
C383        N390   1.157       .  T
C384        N389   1.157       .  T
C385        N387   1.157       .  T
C386        N388   1.157       .  T
C391        C392   1.411       .  A
C391        C396   1.415       .  A
C392        C393   1.408       .  A
C392        C397   1.451       .  S
C393        C394   1.413       .  A
C393        C400   1.451   1_556  S
C394        C395   1.408       .  A
C395        C396   1.411       .  A
C395        C398   1.450       .  S
C396        C399   1.451       .  S
C397        N404   1.157       .  T
C398        N403   1.157       .  T
C399        N401   1.157       .  T
C400        N402   1.157       .  T
C405        C406   1.411       .  A
C405        C410   1.415       .  A
C406        C407   1.409       .  A
C406        C411   1.451       .  S
C407        C408   1.416       .  A
C407        C414   1.451       .  S
C408        C409   1.413       .  A
C409        C410   1.409       .  A
C409        C412   1.452       .  S
C410        C413   1.452       .  S
C411        N418   1.157       .  T
C412        N417   1.157       .  T
C413        N415   1.157       .  T
C414        N416   1.157       .  T
C419        C420   1.411   1_565  A
C419        C424   1.412   1_565  A
C420        C421   1.406       .  A
C420        C425   1.451       .  S
C421        C422   1.412       .  A
C421        C428   1.452       .  S
C422        C423   1.411       .  A
C423        C424   1.414       .  A
C423        C426   1.449       .  S
C424        C427   1.450   1_545  S
C425        N432   1.157   1_545  T
C426        N431   1.157       .  T
C427        N429   1.157       .  T
C428        N430   1.157       .  T
C433        C434   1.411       .  A
C433        C438   1.412       .  A
C434        C435   1.413       .  A
C434        C439   1.452       .  S
C435        C436   1.419       .  A
C435        C442   1.451       .  S
C436        C437   1.417       .  A
C437        C438   1.411       .  A
C437        C440   1.451       .  S
C438        C441   1.450       .  S
C439        N446   1.157       .  T
C440        N445   1.157       .  T
C441        N443   1.157       .  T
C442        N444   1.158       .  T
C447        C448   1.412       .  A
C447        C452   1.413       .  A
C448        C449   1.411       .  A
C448        C453   1.450       .  S
C449        C450   1.411       .  A
C449        C456   1.450       .  S
C450        C451   1.411       .  A
C451        C452   1.410       .  A
C451        C454   1.451       .  S
C452        C455   1.450       .  S
C453        N460   1.157       .  T
C454        N459   1.157       .  T
C455        N457   1.157       .  T
C456        N458   1.157       .  T
C461        C462   1.414       .  A
C461        C466   1.413       .  A
C462        C463   1.413       .  A
C462        C467   1.452       .  S
C463        C464   1.418       .  A
C463        C470   1.450       .  S
C464        C465   1.418       .  A
C465        C466   1.411       .  A
C465        C468   1.452       .  S
C466        C469   1.451       .  S
C467        N474   1.157       .  T
C468        N473   1.157       .  T
C469        N471   1.157       .  T
C470        N472   1.158       .  T
C475        C476   1.410   1_554  A
C475        C480   1.410   1_554  A
C476        C477   1.411       .  A
C476        C481   1.451   1_556  S
C477        C478   1.413       .  A
C477        C484   1.451       .  S
C478        C479   1.414       .  A
C479        C480   1.410       .  A
C479        C482   1.451       .  S
C480        C483   1.451       .  S
C481        N488   1.157       .  T
C482        N487   1.157       .  T
C483        N485   1.157   1_556  T
C484        N486   1.157       .  T
C489        C490   1.415       .  A
C489        C494   1.413       .  A
C490        C491   1.408       .  A
C490        C495   1.452       .  S
C491        C492   1.411       .  A
C491        C498   1.452       .  S
C492        C493   1.410       .  A
C493        C494   1.409       .  A
C493        C496   1.451       .  S
C494        C497   1.451       .  S
C495        N502   1.157       .  T
C496        N501   1.157       .  T
C497        N499   1.157       .  T
C498        N500   1.157       .  T
C503        C504   1.410       .  A
C503        C508   1.414       .  A
C504        C505   1.409       .  A
C504        C509   1.451       .  S
C505        C506   1.415       .  A
C505        C512   1.452       .  S
C506        C507   1.412       .  A
C507        C508   1.410       .  A
C507        C510   1.451       .  S
C508        C511   1.452       .  S
C509        N516   1.157       .  T
C510        N515   1.157       .  T
C511        N513   1.157       .  T
C512        N514   1.157       .  T
C517        C518   1.415       .  A
C517        C522   1.412       .  A
C518        C519   1.410       .  A
C518        C523   1.451       .  S
C519        C520   1.412       .  A
C519        C526   1.452       .  S
C520        C521   1.416       .  A
C521        C522   1.409       .  A
C521        C524   1.452       .  S
C522        C525   1.452       .  S
C523        N530   1.157       .  T
C524        N529   1.157       .  T
C525        N527   1.157       .  T
C526        N528   1.157       .  T
C531        C532   1.411       .  A
C531        C536   1.410       .  A
C532        C533   1.408       .  A
C532        C537   1.452       .  S
C533        C534   1.412       .  A
C533        C540   1.450       .  S
C534        C535   1.412       .  A
C535        C536   1.410       .  A
C535        C538   1.450       .  S
C536        C539   1.450       .  S
C537        N544   1.157       .  T
C538        N543   1.157       .  T
C539        N541   1.157       .  T
C540        N542   1.157       .  T
C545        C546   1.415       .  A
C545        C550   1.413       .  A
C546        C547   1.414       .  A
C546        C551   1.451       .  S
C547        C548   1.415       .  A
C547        C554   1.451       .  S
C548        C549   1.415       .  A
C549        C550   1.408       .  A
C549        C552   1.452       .  S
C550        C553   1.450       .  S
C551        N558   1.157       .  T
C552        N557   1.157       .  T
C553        N555   1.157       .  T
C554        N556   1.157       .  T
C559        C560   1.411       .  A
C559        C564   1.412       .  A
C560        C561   1.412       .  A
C560        C565   1.449       .  S
C561        C562   1.411       .  A
C561        C568   1.450       .  S
C562        C563   1.410       .  A
C563        C564   1.407       .  A
C563        C566   1.451   1_655  S
C564        C567   1.452   1_655  S
C565        N572   1.157       .  T
C566        N571   1.157       .  T
C567        N569   1.157       .  T
C568        N570   1.157       .  T
C573        C574   1.413       .  A
C573        C578   1.412       .  A
C574        C575   1.407       .  A
C574        C579   1.452       .  S
C575        C576   1.414       .  A
C575        C582   1.452       .  S
C576        C577   1.415       .  A
C577        C578   1.415       .  A
C577        C580   1.450       .  S
C578        C581   1.450       .  S
C579        N586   1.157       .  T
C580        N585   1.157       .  T
C581        N583   1.157       .  T
C582        N584   1.157       .  T
C587        C588   1.410       .  A
C587        C592   1.413       .  A
C588        C589   1.409   1_556  A
C588        C593   1.451   1_455  S
C589        C590   1.413       .  A
C589        C596   1.451       .  S
C590        C591   1.411   1_554  A
C591        C592   1.412       .  A
C591        C594   1.450       .  S
C592        C595   1.451       .  S
C593        N600   1.157       .  T
C594        N599   1.157       .  T
C595        N597   1.157       .  T
C596        N598   1.157       .  T
