geometry optimzed in LAMMPS
_audit_creation_date              2020-11-30 
_audit_creation_method            'lammps2cif' 
_symmetry_space_group_name_H-M    'P1' 
_symmetry_Int_Tables_number       1 
_symmetry_cell_setting            triclinic 
loop_ 
_symmetry_equiv_pos_as_xyz 
  x,y,z 
_cell_length_a                    33.52908636 
_cell_length_b                    34.40674852495791 
_cell_length_c                    27.83534568289021 
_cell_angle_alpha                 99.77403778311401 
_cell_angle_beta                  90.4928089320803 
_cell_angle_gamma                 90.05299017347483 
loop_ 
_atom_site_label 
_atom_site_type_symbol 
_atom_site_fract_x 
_atom_site_fract_y 
_atom_site_fract_z 
_atom_site_charge 
C1          C  0.83358195  0.19888549  0.03174116     0.79900
N2          N  0.84370111  0.18202369  0.98580653    -0.78400
C3          C  0.82853053  0.19593321  0.94669093     0.82300
N4          N  0.80300978  0.22706788  0.95381451    -0.78400
C5          C  0.79188016  0.24351871  0.99968459     0.82400
N6          N  0.80754894  0.22942393  0.03834714    -0.80100
C7          C  0.22699765  0.96340339  0.89892301     0.79900
N8          N  0.21271695  0.98111358  0.94267537    -0.78400
C9          C  0.22680105  0.97110211  0.98467062     0.82300
N10         N  0.25509410  0.94276709  0.98262140    -0.78400
C11         C  0.27005601  0.92485407  0.93930349     0.82400
N12         N  0.25566478  0.93528613  0.89742880    -0.80100
Zr13       Zr  0.49264891  0.60282179  0.90473353     2.17500
O14         O  0.43381672  0.59879450  0.85188899    -0.51700
O15         O  0.53170489  0.63619571  0.85127328    -0.74900
O16         O  0.45512589  0.66418378  0.91602132    -0.81700
O17         O  0.52020397  0.49683505  0.84712677    -0.83400
O18         O  0.46732043  0.69618157  0.99312580    -0.79100
O19         O  0.48615284  0.55110871  0.83428179    -0.90700
O20         O  0.59551134  0.64211241  0.87856768    -0.76600
O21         O  0.53462085  0.64733433  0.95703961    -0.86100
O22         O  0.55698915  0.57324061  0.90091844    -0.85800
O23         O  0.46187307  0.60922538  0.98326009    -0.72600
O24         O  0.48348455  0.54089200  0.93127669    -0.84700
Zr25       Zr  0.56188672  0.56182839  0.06048694     2.26400
Zr26       Zr  0.50549698  0.65273318  0.03592095     2.06300
Zr27       Zr  0.54830903  0.51191689  0.92871358     2.10000
Zr28       Zr  0.59853592  0.61726856  0.95454797     1.78800
O29         O  0.51622733  0.44743537  0.91584930    -0.93500
O30         O  0.61807193  0.68635445  0.97632354    -0.41300
O31         O  0.59183966  0.55515412  0.98163946    -0.78000
O32         O  0.57079115  0.62428106  0.03441407    -0.96700
O33         O  0.49758350  0.59137442  0.06402015    -0.90000
O34         O  0.51993411  0.51765651  0.00772085    -0.92800
C35         C  0.56809581  0.64663083  0.84765765     1.01000
C36         C  0.49820913  0.51554468  0.82083998     1.13900
C37         C  0.45141034  0.69373440  0.95063087     1.04700
O38         O  0.53614573  0.71790506  0.05167339    -0.95000
O39         O  0.52847331  0.66530819  0.11990124    -0.90700
O40         O  0.55952534  0.60987863  0.13499482    -0.83800
C41         C  0.54704211  0.64532472  0.14804255     1.11300
O42         O  0.38954469  0.54491583  0.97414271    -0.96900
Zr43       Zr  0.45588048  0.54726808  0.01115962     1.88900
O44         O  0.52522876  0.52537272  0.11306311    -0.73600
O45         O  0.44715968  0.67271564  0.08572247    -0.52800
O46         O  0.40595202  0.57851648  0.06812250    -0.97500
O47         O  0.43422570  0.47981387  0.98104298    -0.54700
O48         O  0.46206355  0.51657958  0.08309236    -0.74100
C49         C  0.48949750  0.51217300  0.11414249     0.98200
O50         O  0.62568988  0.56850918  0.10411469    -0.62900
O51         O  0.60486575  0.49016882  0.87666538    -0.57700
O52         O  0.59894126  0.50007885  0.04957824    -0.94400
O53         O  0.58956972  0.47051098  0.97075361    -0.92800
O54         O  0.65335575  0.58496739  0.90679841    -0.93200
O55         O  0.66278765  0.62530665  0.99650673    -0.92000
C56         C  0.60443656  0.47180529  0.01365536     1.17100
H57         H  0.56719199  0.56871983  0.86810668     0.33000
H58         H  0.58830150  0.64086396  0.05689629     0.43900
H59         H  0.51890746  0.49205655  0.01754743     0.37400
H60         H  0.43563461  0.62068188  0.98229059     0.33900
H61         H  0.63933570  0.68999689  0.95300589     0.25700
H62         H  0.44578170  0.70171543  0.08798332     0.31600
H63         H  0.39371505  0.55669408  0.08195763     0.37500
H64         H  0.65219610  0.55721105  0.91190693     0.32000
H65         H  0.60035542  0.46156525  0.86585199     0.30900
H66         H  0.53605219  0.42934388  0.89789205     0.32500
H67         H  0.45225415  0.46295214  0.99690169     0.31500
H68         H  0.65988893  0.61101979  0.02429077     0.35500
H69         H  0.64576331  0.55963859  0.07878765     0.28200
H70         H  0.43579544  0.62131781  0.83410569     0.32500
H71         H  0.37317739  0.52852138  0.99245161     0.35300
H72         H  0.60064915  0.50190829  0.84692881     0.27900
H73         H  0.63071065  0.59722126  0.11271676     0.40800
H74         H  0.56495453  0.71287000  0.05558529     0.30900
H75         H  0.59515768  0.70140385  0.96639900     0.38500
H76         H  0.44198010  0.47475812  0.94630704     0.30300
H77         H  0.42400428  0.66254860  0.06503498     0.30400
H78         H  0.41087474  0.60493225  0.87402733     0.30700
C79         C  0.40612526  0.38988719  0.40064782     0.79900
N80         N  0.41873530  0.40463231  0.44657463    -0.78400
C81         C  0.40328719  0.39090260  0.48532599     0.82300
N82         N  0.37539032  0.36197829  0.47770046    -0.78400
C83         C  0.36252296  0.34663026  0.43202942     0.82400
N84         N  0.37818294  0.36078402  0.39358223    -0.80100
C85         C  0.65185768  0.77180853  0.56297558     0.79900
N86         N  0.63629868  0.75739487  0.51831223    -0.78400
C87         C  0.64752578  0.77245272  0.47851939     0.82300
N88         N  0.67422952  0.80249218  0.48392923    -0.78400
C89         C  0.69041163  0.81674232  0.52824551     0.82400
N90         N  0.67932177  0.80118865  0.56764592    -0.80100
Zr91       Zr  0.04677288  0.11621679  0.39548545     2.17500
O92         O  0.04173865  0.18146561  0.37285719    -0.51700
O93         O  0.08107338  0.08334570  0.32429914    -0.74900
O94         O  0.11135544  0.14854116  0.40199332    -0.81700
O95         O  0.94307117  0.08661117  0.34658039    -0.83400
O96         O  0.14223380  0.13388977  0.46961664    -0.79100
O97         O  0.99796939  0.12109597  0.33196247    -0.90700
O98         O  0.08876819  0.01918905  0.33169835    -0.76600
O99         O  0.09128560  0.07222372  0.42609499    -0.86100
O100        O  0.01713239  0.05253698  0.37760857    -0.85800
O101        O  0.05353934  0.14180623  0.48089660    -0.72600
O102        O  0.98347650  0.12275974  0.43524970    -0.84700
Zr103      Zr  0.00542389  0.03930336  0.53646761     2.26400
Zr104      Zr  0.09702045  0.09631614  0.51146253     2.06300
Zr105      Zr  0.95521351  0.05798571  0.41906811     2.10000
Zr106      Zr  0.06096558  0.00895092  0.40905168     1.78800
O107        O  0.88879114  0.08685162  0.42450590    -0.93500
O108        O  0.12927983  0.98529984  0.41160133    -0.41300
O109        O  0.99865327  0.01340316  0.45097171    -0.78000
O110        O  0.06825408  0.03175260  0.49502142    -0.96700
O111        O  0.03499467  0.10297089  0.55330445    -0.90000
O112        O  0.96080541  0.08230875  0.50425824    -0.92800
C113        C  0.09277798  0.04815237  0.30838868     1.01000
C114        C  0.96240968  0.10822274  0.32148009     1.13900
C115        C  0.14120516  0.15020922  0.43145845     1.04700
O116        O  0.16471758  0.07088694  0.51248771    -0.95000
O117        O  0.11032955  0.06561879  0.58234527    -0.90700
O118        O  0.05363642  0.03521655  0.60098638    -0.83800
C119        C  0.09016030  0.04579439  0.60891650     1.11300
O120        O  0.99288597  0.21273454  0.50284407    -0.96900
Zr121      Zr  0.99026949  0.14584687  0.52103671     1.88900
O122        O  0.97049268  0.07300669  0.60765619    -0.73600
O123        O  0.11312354  0.15301804  0.57357548    -0.52800
O124        O  0.01776923  0.19234705  0.58902995    -0.97500
O125        O  0.92251683  0.16868214  0.50956838    -0.54700
O126        O  0.95664845  0.13499703  0.59444072    -0.74100
C127        C  0.95444367  0.10710312  0.61960929     0.98200
O128        O  0.00917767  0.97363170  0.55847209    -0.62900
O129        O  0.93547936  0.00252028  0.35673933    -0.57700
O130        O  0.94139810  0.00640239  0.52935112    -0.94400
O131        O  0.91380626  0.01445692  0.45672951    -0.92800
O132        O  0.02674484  0.96079920  0.34823006    -0.93200
O133        O  0.06265350  0.94249652  0.42831430    -0.92000
C134        C  0.91398961  0.00037441  0.49651283     1.17100
H135        H  0.01297797  0.04427842  0.34300053     0.33000
H136        H  0.08486680  0.01324032  0.50842354     0.43900
H137        H  0.93485528  0.08246944  0.51908624     0.37400
H138        H  0.06563291  0.16768108  0.48555460     0.33900
H139        H  0.13131299  0.96399920  0.38294042     0.25700
H140        H  0.09772426  0.14882133  0.60246613     0.31600
H141        H  0.99440489  0.20681950  0.60450516     0.37500
H142        H  0.04796741  0.94903624  0.32585701     0.32000
H143        H  0.90680995  0.00687303  0.35076067     0.30900
H144        H  0.87102792  0.06557932  0.40807583     0.32500
H145        H  0.91551353  0.18487704  0.54125198     0.31500
H146        H  0.04840022  0.94459141  0.45964613     0.35500
H147        H  0.99515895  0.95587602  0.53192746     0.28200
H148        H  0.06181330  0.18177602  0.34702951     0.32500
H149        H  0.97329454  0.22819990  0.52462891     0.35300
H150        H  0.94876741  0.00708312  0.32655585     0.27900
H151        H  0.03750714  0.96582639  0.55411255     0.40800
H152        H  0.16181489  0.04201669  0.50229771     0.30900
H153        H  0.14588041  0.00694798  0.40316822     0.38500
H154        H  0.90546277  0.14494419  0.50735287     0.30300
H155        H  0.14124261  0.14879265  0.58251881     0.30400
H156        H  0.05224253  0.19992899  0.40135495     0.30700
C157        C  0.71983317  0.84885856  0.53287078    -0.20200
C158        C  0.75384760  0.84957838  0.56313777     0.36000
C159        C  0.78335056  0.87817464  0.56170256    -0.26200
C160        C  0.77906256  0.90619917  0.53090697     0.02400
C161        C  0.74383762  0.90718974  0.50320488     0.27200
C162        C  0.71476274  0.87814365  0.50398511    -0.25300
N163        N  0.75964601  0.82008976  0.59316741    -0.82700
H164        H  0.81054224  0.87725788  0.58282499     0.13000
C165        C  0.81338707  0.93110289  0.52327261     0.02400
N166        N  0.73831542  0.93718109  0.47355323    -0.81300
H167        H  0.68822708  0.87803962  0.48145519     0.17900
C168        C  0.82871668  0.92764014  0.47606421    -0.26100
C169        C  0.86187874  0.94963856  0.46651092     0.35900
C170        C  0.87997477  0.97568873  0.50519049    -0.20200
C171        C  0.86511480  0.97861359  0.55266907    -0.25400
C172        C  0.83167073  0.95668989  0.56208062     0.27300
H173        H  0.81501723  0.90714283  0.44666066     0.13000
N174        N  0.87769234  0.94501214  0.41798630    -0.82700
H175        H  0.87911940  0.99867450  0.58225350     0.17900
N176        N  0.81601588  0.96049053  0.61056510    -0.81300
H177        H  0.86060421  0.92490740  0.39383161     0.33500
H178        H  0.90617559  0.93279179  0.41888875     0.38000
H179        H  0.83301825  0.98055469  0.63487979     0.33500
H180        H  0.78738593  0.97242986  0.61001754     0.30200
H181        H  0.71088404  0.93357044  0.45516852     0.33500
H182        H  0.73716787  0.96434120  0.49696506     0.30200
H183        H  0.76276676  0.83435663  0.62928488     0.38000
H184        H  0.78633138  0.80538266  0.58298487     0.33500
C185        C  0.17622090  0.17395099  0.42205029    -0.20200
C186        C  0.21474010  0.16636000  0.43938073     0.36000
C187        C  0.24581901  0.19293555  0.43556502    -0.26200
C188        C  0.23918874  0.22689122  0.41512495     0.02400
C189        C  0.20137316  0.23363600  0.39580411     0.27200
C190        C  0.17036886  0.20672969  0.39876772    -0.25300
N191        N  0.22206120  0.13211221  0.46141625    -0.82700
H192        H  0.27514814  0.18787512  0.44994959     0.13000
C193        C  0.27100291  0.25700946  0.41874752     0.02400
N194        N  0.19420616  0.26865642  0.37528999    -0.81300
H195        H  0.14094454  0.21268643  0.38538127     0.17900
C196        C  0.28755073  0.26698160  0.37643378    -0.26100
C197        C  0.31702724  0.29645122  0.37909714     0.35900
C198        C  0.33078751  0.31572419  0.42548489    -0.20200
C199        C  0.31375929  0.30528576  0.46763502    -0.25400
C200        C  0.28392034  0.27652539  0.46473244     0.27300
H201        H  0.27708242  0.25191565  0.34120853     0.13000
N202        N  0.33270692  0.30655100  0.33489401    -0.82700
H203        H  0.32335701  0.31984131  0.50342901     0.17900
N204        N  0.26634873  0.26720286  0.50838289    -0.81300
H205        H  0.32127151  0.28772597  0.30442112     0.33500
H206        H  0.32224084  0.33472482  0.33220151     0.38000
H207        H  0.27938754  0.28397489  0.53939171     0.33500
H208        H  0.23630458  0.27532732  0.50837979     0.30200
H209        H  0.16477761  0.26919709  0.36269061     0.33500
H210        H  0.19747236  0.29288643  0.40332654     0.30200
H211        H  0.21770346  0.10727647  0.43450662     0.38000
H212        H  0.25176683  0.13136936  0.47296438     0.33500
C213        C  0.47863805  0.49101278  0.15428749    -0.20200
C214        C  0.50715823  0.47020379  0.17778873     0.36000
C215        C  0.49545202  0.45260511  0.21745228    -0.26200
C216        C  0.45594804  0.45494909  0.23341893     0.02400
C217        C  0.42717870  0.47438964  0.20915726     0.27200
C218        C  0.43880699  0.49229209  0.16985554    -0.25300
N219        N  0.54767488  0.46666961  0.16113597    -0.82700
H220        H  0.51716642  0.43710631  0.23617732     0.13000
C221        C  0.44509209  0.43758199  0.27634977     0.02400
N222        N  0.38640791  0.47620824  0.22496981    -0.81300
H223        H  0.41674003  0.50798145  0.15191993     0.17900
C224        C  0.44106255  0.46246527  0.32129921    -0.26100
C225        C  0.42915255  0.44750710  0.36277857     0.35900
C226        C  0.42098982  0.40671788  0.35879941    -0.20200
C227        C  0.42571043  0.38180160  0.31371499    -0.25400
C228        C  0.43795248  0.39687925  0.27240387     0.27300
H229        H  0.44675562  0.49375988  0.32375118     0.13000
N230        N  0.42438698  0.47374906  0.40841926    -0.82700
H231        H  0.41977721  0.35051119  0.31073135     0.17900
N232        N  0.44302765  0.37120574  0.22644706    -0.81300
H233        H  0.43222898  0.50258692  0.40508455     0.33500
H234        H  0.39407862  0.47429789  0.41702958     0.38000
H235        H  0.43706658  0.34196948  0.22985589     0.33500
H236        H  0.42174573  0.37901822  0.20214017     0.30200
H237        H  0.36903284  0.49188905  0.20345093     0.33500
H238        H  0.37523477  0.44739549  0.21926492     0.30200
H239        H  0.54730374  0.45009316  0.12597477     0.38000
H240        H  0.56475458  0.45079719  0.18272552     0.33500
C241        C  0.48474531  0.49500593  0.77205770    -0.20200
C242        C  0.50394859  0.46097739  0.74681421     0.36000
C243        C  0.48923804  0.44312769  0.70089715    -0.26200
C244        C  0.45646140  0.45890815  0.67928761     0.02400
C245        C  0.43725439  0.49264021  0.70426287     0.27200
C246        C  0.45137493  0.51008816  0.75038323    -0.25300
N247        N  0.53860775  0.44502794  0.76714501    -0.82700
H248        H  0.50376352  0.41709401  0.68138456     0.13000
C249        C  0.44331384  0.44064700  0.62971973     0.02400
N250        N  0.40376412  0.50933725  0.68241223    -0.81300
H251        H  0.43611288  0.53583086  0.76938495     0.17900
C252        C  0.40422166  0.42630159  0.62232904    -0.26100
C253        C  0.39019017  0.41028011  0.57549917     0.35900
C254        C  0.41626628  0.40786866  0.53538883    -0.20200
C255        C  0.45540673  0.42227609  0.54300583    -0.25400
C256        C  0.46915708  0.43877699  0.58975610     0.27300
H257        H  0.38447055  0.42810939  0.65324297     0.13000
N258        N  0.34940667  0.39738883  0.56854797    -0.82700
H259        H  0.47541252  0.42059855  0.51236104     0.17900
N260        N  0.50908606  0.45409429  0.59681580    -0.81300
H261        H  0.33449058  0.40098319  0.60184065     0.33500
H262        H  0.33517204  0.41583081  0.54755465     0.38000
H263        H  0.52432696  0.45027317  0.56374191     0.33500
H264        H  0.50703320  0.48450442  0.60885662     0.30200
H265        H  0.39284499  0.53399138  0.70576197     0.33500
H266        H  0.41395865  0.51941258  0.65131431     0.30200
H267        H  0.56158315  0.46572362  0.76814941     0.38000
H268        H  0.54828627  0.41948233  0.74440829     0.33500
C269        C  0.55623138  0.66506824  0.19841977    -0.20200
C270        C  0.56336746  0.64331047  0.23644198     0.36000
C271        C  0.57635369  0.66312344  0.28209884    -0.26200
C272        C  0.58148621  0.70413018  0.29090004     0.02400
C273        C  0.57304571  0.72610328  0.25374470     0.27200
C274        C  0.56048120  0.70634481  0.20783871    -0.25300
N275        N  0.55748634  0.60128102  0.22867121    -0.82700
H276        H  0.58298029  0.64648253  0.31093784     0.13000
C277        C  0.59709813  0.72329353  0.33887182     0.02400
N278        N  0.57784287  0.76825918  0.26264855    -0.81300
H279        H  0.55512084  0.72320892  0.17890601     0.17900
C280        C  0.63396757  0.74269625  0.34130542    -0.26100
C281        C  0.65132234  0.75878342  0.38634729     0.35900
C282        C  0.63078423  0.75603264  0.42988775    -0.20200
C283        C  0.59368459  0.73669070  0.42711423    -0.25400
C284        C  0.57665354  0.72029849  0.38204290     0.27300
H285        H  0.64982876  0.74414568  0.30788615     0.13000
N286        N  0.69017641  0.77669700  0.38786375    -0.82700
H287        H  0.57770082  0.73454187  0.46022471     0.17900
N288        N  0.53869675  0.70057752  0.37981250    -0.81300
H289        H  0.70064944  0.77693540  0.35264261     0.33500
H290        H  0.70978239  0.75893666  0.40391657     0.38000
H291        H  0.52784542  0.70034229  0.41486342     0.33500
H292        H  0.51850775  0.71699798  0.36262897     0.30200
H293        H  0.57064832  0.77997949  0.23139249     0.33500
H294        H  0.55730555  0.77988304  0.28930070     0.30200
H295        H  0.52707981  0.59588985  0.22192778     0.38000
H296        H  0.56458619  0.58986348  0.26017224     0.33500
C297        C  0.57949293  0.66520165  0.80525792    -0.20200
C298        C  0.55244836  0.66834319  0.76659693     0.36000
C299        C  0.56459004  0.68755996  0.72865605    -0.26200
C300        C  0.60335953  0.70226490  0.72726239     0.01000
C301        C  0.63071677  0.69846207  0.76468321     0.27200
C302        C  0.61844677  0.68036485  0.80356149    -0.25300
N303        N  0.51305586  0.65158652  0.76520685    -0.82700
H304        H  0.54393889  0.69044045  0.69929950     0.13000
C305        C  0.61537096  0.72018873  0.68516149     0.02400
N306        N  0.67089462  0.71275064  0.76272988    -0.81300
H307        H  0.63964873  0.67801151  0.83250050     0.17900
C308        C  0.62741780  0.75977032  0.69254128    -0.26100
C309        C  0.63910958  0.77763863  0.65317988     0.35900
C310        C  0.63928582  0.75501023  0.60575593    -0.20200
C311        C  0.62680662  0.71549777  0.59863349    -0.25400
C312        C  0.61477464  0.69786282  0.63785551     0.27300
H313        H  0.62711269  0.77682656  0.72904961     0.13000
N314        N  0.64986334  0.81871835  0.66109111    -0.82700
H315        H  0.62688489  0.69807628  0.56234807     0.17900
N316        N  0.60203446  0.65733975  0.62994490    -0.81300
H317        H  0.62852002  0.83344347  0.64330651     0.33500
H318        H  0.64838004  0.83083490  0.69811080     0.38000
H319        H  0.60289498  0.64523655  0.59288129     0.33500
H320        H  0.62248742  0.64153169  0.64758565     0.30200
H321        H  0.68731899  0.70784234  0.79321965     0.33500
H322        H  0.68449544  0.69618118  0.73230237     0.30200
H323        H  0.51623056  0.62091326  0.75943301     0.38000
H324        H  0.49673242  0.65809671  0.73540348     0.33500
C325        C  0.11242630  0.04030926  0.26005211    -0.20200
C326        C  0.10977119  0.06682246  0.22621595     0.36000
C327        C  0.13004105  0.05809894  0.18173871    -0.26200
C328        C  0.15177211  0.02312010  0.16967182     0.02400
C329        C  0.15387371  0.99639403  0.20272206     0.27200
C330        C  0.13451861  0.00539986  0.24761105    -0.25300
N331        N  0.08615272  0.10210229  0.23649428    -0.82700
H332        H  0.12849475  0.07840271  0.15597034     0.13000
C333        C  0.17136942  0.01395356  0.12170537     0.02400
N334        N  0.17538020  0.95997171  0.19028693    -0.81300
H335        H  0.13676065  0.98484625  0.27298202     0.17900
C336        C  0.21254876  0.00706650  0.12000956    -0.26100
C337        C  0.23167402  0.99421846  0.07556778     0.35900
C338        C  0.20906282  0.98848040  0.03186690    -0.20200
C339        C  0.16817114  0.99742987  0.03346285    -0.25400
C340        C  0.14896701  0.00968497  0.07805023     0.27300
H341        H  0.22965091  0.01103752  0.15371492     0.13000
N342        N  0.27386903  0.98694821  0.07476133    -0.82700
H343        H  0.15073171  0.99307074  0.00001841     0.17900
N344        N  0.10665070  0.01650780  0.07934144    -0.81300
H345        H  0.28588677  0.99210044  0.11006560     0.33500
H346        H  0.28718308  0.00730702  0.05592946     0.38000
H347        H  0.09461157  0.01212921  0.04405595     0.33500
H348        H  0.09362629  0.99534155  0.09717417     0.30200
H349        H  0.17427602  0.94367306  0.21871372     0.33500
H350        H  0.16083954  0.94311637  0.16043758     0.30200
H351        H  0.05627735  0.09347336  0.23722312     0.38000
H352        H  0.08839444  0.11864375  0.20839276     0.33500
C353        C  0.11092545  0.03345662  0.65080379    -0.20200
C354        C  0.09238310  0.03592295  0.69652125     0.36000
C355        C  0.11304845  0.02294751  0.73490355    -0.26200
C356        C  0.15212139  0.00846241  0.72884871     0.02400
C357        C  0.17072946  0.00608474  0.68323698     0.27200
C358        C  0.14988830  0.01859411  0.64460362    -0.25300
N359        N  0.05313785  0.05249790  0.70414805    -0.82700
H360        H  0.09889417  0.02467892  0.77005815     0.13000
C361        C  0.17348685  0.99735288  0.77134386     0.02400
N362        N  0.21079504  0.99144143  0.67657484    -0.81300
H363        H  0.16402557  0.01660830  0.60940041     0.17900
C364        C  0.18700618  0.95853888  0.76952814    -0.26100
C365        C  0.20529371  0.94666743  0.81036447     0.35900
C366        C  0.21032232  0.97442535  0.85368454    -0.20200
C367        C  0.19742532  0.01340304  0.85490690    -0.25400
C368        C  0.17931544  0.02520797  0.81416841     0.27300
H369        H  0.18222663  0.93721369  0.73657223     0.13000
N370        N  0.21746375  0.90636897  0.80841276    -0.82700
H371        H  0.20154221  0.03485242  0.88789113     0.17900
N372        N  0.16665696  0.06537042  0.81608079    -0.81300
H373        H  0.21199194  0.88997959  0.77378045     0.33500
H374        H  0.19960314  0.89411952  0.83262837     0.38000
H375        H  0.17285298  0.08208585  0.85033561     0.33500
H376        H  0.18358817  0.07749115  0.79089767     0.30200
H377        H  0.22000607  0.99133208  0.64076072     0.33500
H378        H  0.22953639  0.01112738  0.69903450     0.30200
H379        H  0.05494920  0.08216530  0.70033873     0.38000
H380        H  0.04383982  0.05212137  0.73983401     0.33500
C381        C  0.42703016  0.72745482  0.94151199    -0.20200
C382        C  0.38942114  0.72205093  0.91812415     0.36000
C383        C  0.36605732  0.75521371  0.91375071    -0.26200
C384        C  0.37963865  0.79348944  0.93223782     0.02400
C385        C  0.41790630  0.79882356  0.95393751     0.27200
C386        C  0.44099108  0.76573609  0.95878310    -0.25300
N387        N  0.37444145  0.68298379  0.90075815    -0.82700
H388        H  0.33648372  0.75114546  0.89766764     0.13000
C389        C  0.35236563  0.82750832  0.93262698     0.02400
N390        N  0.43291098  0.83786860  0.97149786    -0.81300
H391        H  0.47005415  0.76979722  0.97628327     0.17900
C392        C  0.34477285  0.85187073  0.97721514    -0.26100
C393        C  0.31978294  0.88477748  0.98012351     0.35900
C394        C  0.29988645  0.89250513  0.93758127    -0.20200
C395        C  0.30752273  0.86783552  0.89280589    -0.25400
C396        C  0.33385363  0.83570901  0.88981619     0.27300
H397        H  0.35883678  0.84531924  0.01011558     0.13000
N398        N  0.31523352  0.91050105  0.02612263    -0.82700
H399        H  0.29275910  0.87338666  0.85989205     0.17900
N400        N  0.34192697  0.81150014  0.84355823    -0.81300
H401        H  0.33071258  0.89972146  0.05385064     0.33500
H402        H  0.32874696  0.93732351  0.02288754     0.38000
H403        H  0.32574626  0.82134270  0.81568293     0.33500
H404        H  0.37209898  0.81492832  0.83602137     0.30200
H405        H  0.46136136  0.83666730  0.98684481     0.33500
H406        H  0.43599615  0.85210923  0.94140871     0.30200
H407        H  0.37036459  0.66917536  0.93105366     0.38000
H408        H  0.34638880  0.68418465  0.88438207     0.33500
C409        C  0.94267795  0.11924328  0.27749716    -0.20200
C410        C  0.90289729  0.10793517  0.26343220     0.36000
C411        C  0.88627112  0.11929027  0.22147731    -0.26200
C412        C  0.90784848  0.14241049  0.19409952     0.02400
C413        C  0.94717312  0.15378249  0.20761554     0.27200
C414        C  0.96428848  0.14190791  0.24888813    -0.25300
N415        N  0.87907520  0.08570472  0.29192197    -0.82700
H416        H  0.85581882  0.11114097  0.21082383     0.13000
C417        C  0.88821436  0.15619380  0.15255636     0.02400
N418        N  0.96937145  0.17766649  0.17951716    -0.81300
H419        H  0.99466469  0.15079436  0.25880427     0.17900
C420        C  0.87843955  0.19614183  0.15683494    -0.26100
C421        C  0.86024940  0.21086220  0.11811829     0.35900
C422        C  0.85184323  0.18481725  0.07411174    -0.20200
C423        C  0.86164160  0.14469414  0.07011190    -0.25400
C424        C  0.87948390  0.13004390  0.10917051     0.27300
H425        H  0.88527934  0.21590056  0.19055316     0.13000
N426        N  0.85109052  0.25218243  0.12315973    -0.82700
H427        H  0.85503990  0.12465017  0.03655797     0.17900
N428        N  0.88877504  0.08883715  0.10510340    -0.81300
H429        H  0.85851566  0.26687097  0.15813219     0.33500
H430        H  0.86919135  0.26415671  0.09894665     0.38000
H431        H  0.88013710  0.07351706  0.07088960     0.33500
H432        H  0.91977925  0.08629113  0.10733883     0.30200
H433        H  0.99784298  0.18381520  0.19452313     0.33500
H434        H  0.97337666  0.16112399  0.14476648     0.30200
H435        H  0.87258772  0.10432676  0.32465139     0.38000
H436        H  0.85160595  0.07806110  0.27482752     0.33500
C437        C  0.93219299  0.11519679  0.66585076    -0.20200
C438        C  0.89674703  0.13756796  0.66966832     0.36000
C439        C  0.87827667  0.14740663  0.71516121    -0.26200
C440        C  0.89495057  0.13627500  0.75721411     0.02400
C441        C  0.92978948  0.11289555  0.75312528     0.27200
C442        C  0.94757431  0.10195699  0.70723644    -0.25300
N443        N  0.87970682  0.15029034  0.62737119    -0.82700
H444        H  0.85108354  0.16461335  0.71811706     0.13000
C445        C  0.87666206  0.15131438  0.80534102     0.02400
N446        N  0.94778704  0.10158000  0.79572468    -0.81300
H447        H  0.97466842  0.08464412  0.70419089     0.17900
C448        C  0.86534995  0.12492959  0.83617342    -0.26100
C449        C  0.84871320  0.13867202  0.88220451     0.35900
C450        C  0.84261283  0.17954562  0.89717967    -0.20200
C451        C  0.85275435  0.20569853  0.86574629    -0.25400
C452        C  0.87056712  0.19216702  0.82056445     0.27300
H453        H  0.86957560  0.09356350  0.82428762     0.13000
N454        N  0.83777870  0.11135080  0.91363385    -0.82700
H455        H  0.84854512  0.23708376  0.87752963     0.17900
N456        N  0.88372691  0.21988549  0.79073120    -0.81300
H457        H  0.84442781  0.08244230  0.89737013     0.33500
H458        H  0.80682201  0.11275912  0.91778731     0.38000
H459        H  0.87710505  0.24876014  0.80715203     0.33500
H460        H  0.91481054  0.21801306  0.78866475     0.30200
H461        H  0.97322654  0.08449221  0.78637612     0.33500
H462        H  0.95742691  0.12732687  0.81837859     0.30200
H463        H  0.87092370  0.12508114  0.60307813     0.38000
H464        H  0.85391635  0.16686549  0.63651815     0.33500
C465        C  0.76402174  0.27740176  0.00756894    -0.20200
C466        C  0.73704540  0.28339669  0.04707092     0.36000
C467        C  0.71067161  0.31556820  0.05208044    -0.26200
C468        C  0.71103773  0.34181988  0.01883925     0.02400
C469        C  0.73878766  0.33683860  0.98061381     0.27200
C470        C  0.76474549  0.30444909  0.97507793    -0.25300
N471        N  0.73580179  0.25643356  0.08124365    -0.82700
H472        H  0.68927529  0.31986708  0.08146375     0.13000
C473        C  0.68122259  0.37368282  0.02291278     0.02400
N474        N  0.74088114  0.36509719  0.94810019    -0.81300
H475        H  0.78594638  0.30052801  0.94549622     0.17900
C476        C  0.69002892  0.41045786  0.05109524    -0.26100
C477        C  0.66469789  0.44293094  0.05033343     0.35900
C478        C  0.62975508  0.43806890  0.02109243    -0.20200
C479        C  0.62010810  0.40051866  0.99510076    -0.25400
C480        C  0.64550703  0.36827117  0.99566830     0.27300
H481        H  0.71761353  0.41418179  0.07196278     0.13000
N482        N  0.67547586  0.48105165  0.07694584    -0.82700
H483        H  0.59302699  0.39653299  0.97326279     0.17900
N484        N  0.63542893  0.33015225  0.96831391    -0.81300
H485        H  0.70149498  0.47925688  0.09742542     0.33500
H486        H  0.68229481  0.49898500  0.05134022     0.38000
H487        H  0.60775249  0.33106646  0.95094034     0.33500
H488        H  0.65642514  0.32312698  0.94069186     0.30200
H489        H  0.76359348  0.35767812  0.92270394     0.33500
H490        H  0.71418385  0.36362080  0.92823506     0.30200
H491        H  0.72604210  0.22917046  0.06232852     0.38000
H492        H  0.71475732  0.26548535  0.10834028     0.33500
loop_ 
_geom_bond_atom_site_label_1 
_geom_bond_atom_site_label_2 
_geom_bond_distance 
_geom_bond_site_symmetry_2 
_ccdc_geom_bond_type 
C1            N2   1.357   1_554  A
C1            N6   1.356       .  A
C1          C422   1.477       .  S
N2            C3   1.357       .  A
C3            N4   1.361       .  A
C3          C450   1.479       .  S
N4            C5   1.361       .  A
C5            N6   1.355   1_556  A
C5          C465   1.483   1_556  S
C7            N8   1.357       .  A
C7           N12   1.360       .  A
C7          C366   1.481       .  S
N8            C9   1.355       .  A
C9           N10   1.356       .  A
C9          C338   1.478   1_556  S
N10          C11   1.358       .  A
C11          N12   1.361       .  A
C11         C394   1.492       .  S
Zr13         O14   2.440       .  S
Zr13         O15   2.420       .  S
Zr13         O16   2.434       .  S
Zr13         O19   2.422       .  S
Zr13         O21   2.377       .  S
Zr13         O22   2.382       .  S
Zr13         O23   2.401       .  S
Zr13         O24   2.391       .  S
O14          H70   0.990       .  S
O14          H78   0.990       .  S
O15          C35   1.281       .  A
O16          C37   1.283       .  A
O17         Zr27   2.424       .  S
O17          C36   1.283       .  A
O18         Zr26   2.424   1_556  S
O18          C37   1.283       .  A
O19          C36   1.284       .  A
O20         Zr28   2.413       .  S
O20          C35   1.281       .  A
O21         Zr26   2.389   1_556  S
O21         Zr28   2.377       .  S
O22         Zr27   2.386       .  S
O22         Zr28   2.378       .  S
O22          H57   0.966       .  S
O23         Zr26   2.396   1_556  S
O23         Zr43   2.398   1_556  S
O23          H60   0.966       .  S
O24         Zr27   2.389       .  S
O24         Zr43   2.391   1_556  S
Zr25         O50   2.442       .  S
Zr25         O44   2.424       .  S
Zr25         O52   2.438       .  S
Zr25         O40   2.425       .  S
Zr25         O31   2.397   1_554  S
Zr25         O32   2.401       .  S
Zr25         O33   2.380       .  S
Zr25         O34   2.377       .  S
Zr26         O45   2.438       .  S
Zr26         O38   2.435       .  S
Zr26         O39   2.423       .  S
Zr26         O32   2.397       .  S
Zr26         O33   2.388       .  S
Zr27         O29   2.434       .  S
Zr27         O51   2.437       .  S
Zr27         O53   2.420       .  S
Zr27         O31   2.393       .  S
Zr27         O34   2.381   1_556  S
Zr28         O54   2.434       .  S
Zr28         O55   2.435       .  S
Zr28         O30   2.439       .  S
Zr28         O31   2.395       .  S
Zr28         O32   2.392   1_556  S
O29          H66   0.990       .  S
O30          H61   0.990       .  S
O30          H75   0.990       .  S
O32          H58   0.966       .  S
O33         Zr43   2.372       .  S
O34         Zr43   2.374       .  S
O34          H59   0.966       .  S
C35         C297   1.487       .  S
C36         C241   1.487       .  S
C37         C381   1.475       .  S
O38          H74   0.990       .  S
O39          C41   1.284       .  A
O40          C41   1.284       .  A
C41         C269   1.480       .  S
O42         Zr43   2.439   1_556  S
O42          H71   0.990       .  S
Zr43         O46   2.438       .  S
Zr43         O47   2.438   1_554  S
Zr43         O48   2.424       .  S
O44          C49   1.283       .  A
O45          H62   0.990       .  S
O45          H77   0.990       .  S
O46          H63   0.990       .  S
O47          H67   0.990       .  S
O47          H76   0.990       .  S
O48          C49   1.283       .  A
C49         C213   1.481       .  S
O50          H69   0.989       .  S
O50          H73   0.990       .  S
O51          H65   0.990       .  S
O51          H72   0.990       .  S
O52          C56   1.286       .  A
O53          C56   1.284   1_556  A
O54          H64   0.990       .  S
O55          H68   0.990   1_556  S
C56         C478   1.480       .  S
C79          N80   1.357       .  A
C79          N84   1.359       .  A
C79         C226   1.476       .  S
N80          C81   1.355       .  A
C81          N82   1.354       .  A
C81         C254   1.478       .  S
N82          C83   1.358       .  A
C83          N84   1.358       .  A
C83         C198   1.492       .  S
C85          N86   1.357       .  A
C85          N90   1.356       .  A
C85         C310   1.474       .  S
N86          C87   1.356       .  A
C87          N88   1.355       .  A
C87         C282   1.481       .  S
N88          C89   1.356       .  A
C89          N90   1.354       .  A
C89         C157   1.469       .  S
Zr91         O92   2.438       .  S
Zr91         O93   2.410       .  S
Zr91         O94   2.425       .  S
Zr91         O97   2.426   1_455  S
Zr91         O99   2.380       .  S
Zr91        O100   2.378       .  S
Zr91        O101   2.400       .  S
Zr91        O102   2.395   1_455  S
O92         H148   0.990       .  S
O92         H156   0.990       .  S
O93         C113   1.280       .  A
O94         C115   1.284       .  A
O95        Zr105   2.422       .  S
O95         C114   1.282       .  A
O96        Zr104   2.422       .  S
O96         C115   1.283       .  A
O97         C114   1.285       .  A
O98        Zr106   2.433       .  S
O98         C113   1.286       .  A
O99        Zr104   2.386       .  S
O99        Zr106   2.374       .  S
O100       Zr105   2.376   1_455  S
O100       Zr106   2.367       .  S
O100        H135   0.966       .  S
O101       Zr104   2.395       .  S
O101       Zr121   2.399   1_455  S
O101        H138   0.966       .  S
O102       Zr105   2.391       .  S
O102       Zr121   2.394       .  S
Zr103       O128   2.442   1_545  S
Zr103       O122   2.430   1_455  S
Zr103       O130   2.417   1_455  S
Zr103       O118   2.428       .  S
Zr103       O109   2.404   1_455  S
Zr103       O110   2.404       .  S
Zr103       O111   2.375       .  S
Zr103       O112   2.380   1_455  S
Zr104       O123   2.434       .  S
Zr104       O116   2.435       .  S
Zr104       O117   2.429       .  S
Zr104       O110   2.391       .  S
Zr104       O111   2.385       .  S
Zr105       O107   2.435       .  S
Zr105       O129   2.438       .  S
Zr105       O131   2.413       .  S
Zr105       O109   2.389       .  S
Zr105       O112   2.383       .  S
Zr106       O132   2.437   1_545  S
Zr106       O133   2.436   1_545  S
Zr106       O108   2.436   1_545  S
Zr106       O109   2.394   1_455  S
Zr106       O110   2.399       .  S
O107        H144   0.990       .  S
O108        H139   0.990       .  S
O108        H153   0.990   1_565  S
O110        H136   0.966       .  S
O111       Zr121   2.380   1_455  S
O112       Zr121   2.370       .  S
O112        H137   0.966       .  S
C113        C325   1.486       .  S
C114        C409   1.491       .  S
C115        C185   1.480       .  S
O116        H152   0.990       .  S
O117        C119   1.284       .  A
O118        C119   1.284       .  A
C119        C353   1.476       .  S
O120       Zr121   2.441       .  S
O120        H149   0.990       .  S
Zr121       O124   2.435   1_655  S
Zr121       O125   2.440       .  S
Zr121       O126   2.425       .  S
O122        C127   1.284       .  A
O123        H140   0.990       .  S
O123        H155   0.990       .  S
O124        H141   0.990   1_455  S
O125        H145   0.990       .  S
O125        H154   0.990       .  S
O126        C127   1.283       .  A
C127        C437   1.479       .  S
O128        H147   0.990   1_455  S
O128        H151   0.990       .  S
O129        H143   0.990       .  S
O129        H150   0.990       .  S
O130        C134   1.282       .  A
O131        C134   1.282       .  A
O132        H142   0.990       .  S
O133        H146   0.990       .  S
C134        C170   1.467   1_545  S
C157        C158   1.410       .  A
C157        C162   1.401       .  A
C158        C159   1.400       .  A
C158        N163   1.432       .  S
C159        C160   1.401       .  A
C159        H164   1.084       .  S
C160        C165   1.472       .  S
C160        C161   1.409       .  A
C161        C162   1.398       .  A
C161        N166   1.438       .  S
C162        H167   1.084       .  S
N163        H183   1.046       .  S
N163        H184   1.046       .  S
C165        C168   1.401       .  A
C165        C172   1.408       .  A
N166        H181   1.046       .  S
N166        H182   1.046       .  S
C168        C169   1.397       .  A
C168        H173   1.084       .  S
C169        C170   1.411       .  A
C169        N174   1.439       .  S
C170        C171   1.404       .  A
C171        C172   1.402       .  A
C171        H175   1.084       .  S
C172        N176   1.437       .  S
N174        H177   1.046       .  S
N174        H178   1.046       .  S
N176        H179   1.046       .  S
N176        H180   1.045       .  S
C185        C186   1.415       .  A
C185        C190   1.406       .  A
C186        C187   1.402       .  A
C186        N191   1.438       .  S
C187        C188   1.401       .  A
C187        H192   1.084       .  S
C188        C193   1.477       .  S
C188        C189   1.408       .  A
C189        C190   1.404       .  A
C189        N194   1.438       .  S
C190        H195   1.084       .  S
N191        H211   1.046       .  S
N191        H212   1.046       .  S
C193        C196   1.400       .  A
C193        C200   1.405       .  A
N194        H209   1.046       .  S
N194        H210   1.046       .  S
C196        C197   1.408       .  A
C196        H201   1.084       .  S
C197        C198   1.421       .  A
C197        N202   1.438       .  S
C198        C199   1.409       .  A
C199        C200   1.399       .  A
C199        H203   1.083       .  S
C200        N204   1.439       .  S
N202        H205   1.046       .  S
N202        H206   1.046       .  S
N204        H207   1.046       .  S
N204        H208   1.046       .  S
C213        C214   1.416       .  A
C213        C218   1.406       .  A
C214        C215   1.405       .  A
C214        N219   1.438       .  S
C215        C216   1.399       .  A
C215        H220   1.084       .  S
C216        C221   1.472       .  S
C216        C217   1.406       .  A
C217        C218   1.401       .  A
C217        N222   1.438       .  S
C218        H223   1.083       .  S
N219        H239   1.046       .  S
N219        H240   1.046       .  S
C221        C224   1.399       .  A
C221        C228   1.406       .  A
N222        H237   1.046       .  S
N222        H238   1.046       .  S
C224        C225   1.402       .  A
C224        H229   1.084       .  S
C225        C226   1.415       .  A
C225        N230   1.438       .  S
C226        C227   1.405       .  A
C227        C228   1.404       .  A
C227        H231   1.084       .  S
C228        N232   1.437       .  S
N230        H233   1.046       .  S
N230        H234   1.046       .  S
N232        H235   1.046       .  S
N232        H236   1.045       .  S
C241        C242   1.417       .  A
C241        C246   1.407       .  A
C242        C243   1.406       .  A
C242        N247   1.438       .  S
C243        C244   1.402       .  A
C243        H248   1.084       .  S
C244        C249   1.479       .  S
C244        C245   1.407       .  A
C245        C246   1.400       .  A
C245        N250   1.438       .  S
C246        H251   1.083       .  S
N247        H267   1.046       .  S
N247        H268   1.046       .  S
C249        C252   1.401       .  A
C249        C256   1.409       .  A
N250        H265   1.046       .  S
N250        H266   1.045       .  S
C252        C253   1.403       .  A
C252        H257   1.084       .  S
C253        C254   1.415       .  A
C253        N258   1.438       .  S
C254        C255   1.404       .  A
C255        C256   1.402       .  A
C255        H259   1.084       .  S
C256        N260   1.438       .  S
N258        H261   1.046       .  S
N258        H262   1.046       .  S
N260        H263   1.046       .  S
N260        H264   1.046       .  S
C269        C270   1.415       .  A
C269        C274   1.407       .  A
C270        C271   1.402       .  A
C270        N275   1.439       .  S
C271        C272   1.401       .  A
C271        H276   1.084       .  S
C272        C277   1.477       .  S
C272        C273   1.408       .  A
C273        C274   1.403       .  A
C273        N278   1.438       .  S
C274        H279   1.083       .  S
N275        H295   1.046       .  S
N275        H296   1.046       .  S
C277        C280   1.400       .  A
C277        C284   1.407       .  A
N278        H293   1.046       .  S
N278        H294   1.045       .  S
C280        C281   1.403       .  A
C280        H285   1.084       .  S
C281        C282   1.416       .  A
C281        N286   1.438       .  S
C282        C283   1.406       .  A
C283        C284   1.402       .  A
C283        H287   1.083       .  S
C284        N288   1.438       .  S
N286        H289   1.046       .  S
N286        H290   1.046       .  S
N288        H291   1.046       .  S
N288        H292   1.046       .  S
C297        C298   1.419       .  A
C297        C302   1.410       .  A
C298        C299   1.401       .  A
C298        N303   1.438       .  S
C299        C300   1.398       .  A
C299        H304   1.084       .  S
C300        C305   1.473       .  S
C300        C301   1.405       .  A
C301        C302   1.401       .  A
C301        N306   1.438       .  S
C302        H307   1.083       .  S
N303        H323   1.046       .  S
N303        H324   1.046       .  S
C305        C308   1.401       .  A
C305        C312   1.407       .  A
N306        H321   1.045       .  S
N306        H322   1.046       .  S
C308        C309   1.403       .  A
C308        H313   1.084       .  S
C309        C310   1.414       .  A
C309        N314   1.438       .  S
C310        C311   1.403       .  A
C311        C312   1.398       .  A
C311        H315   1.083       .  S
C312        N316   1.438       .  S
N314        H317   1.046       .  S
N314        H318   1.046       .  S
N316        H319   1.046       .  S
N316        H320   1.045       .  S
C325        C326   1.420       .  A
C325        C330   1.406       .  A
C326        C327   1.405       .  A
C326        N331   1.439       .  S
C327        C328   1.400       .  A
C327        H332   1.084       .  S
C328        C333   1.479       .  S
C328        C329   1.408   1_545  A
C329        C330   1.400   1_565  A
C329        N334   1.438       .  S
C330        H335   1.083   1_545  S
N331        H351   1.046       .  S
N331        H352   1.046       .  S
C333        C336   1.401       .  A
C333        C340   1.409       .  A
N334        H349   1.046       .  S
N334        H350   1.046       .  S
C336        C337   1.402   1_545  A
C336        H341   1.084       .  S
C337        C338   1.413       .  A
C337        N342   1.437       .  S
C338        C339   1.405       .  A
C339        C340   1.403   1_565  A
C339        H343   1.084       .  S
C340        N344   1.438       .  S
N342        H345   1.046       .  S
N342        H346   1.045   1_565  S
N344        H347   1.046       .  S
N344        H348   1.046   1_545  S
C353        C354   1.411       .  A
C353        C358   1.405       .  A
C354        C355   1.404       .  A
C354        N359   1.438       .  S
C355        C356   1.403       .  A
C355        H360   1.084       .  S
C356        C361   1.483   1_545  S
C356        C357   1.409       .  A
C357        C358   1.405       .  A
C357        N362   1.438   1_545  S
C358        H363   1.084       .  S
N359        H379   1.046       .  S
N359        H380   1.046       .  S
C361        C364   1.404       .  A
C361        C368   1.409   1_565  A
N362        H377   1.046       .  S
N362        H378   1.046   1_565  S
C364        C365   1.407       .  A
C364        H369   1.084       .  S
C365        C366   1.414       .  A
C365        N370   1.438       .  S
C366        C367   1.404   1_565  A
C367        C368   1.402       .  A
C367        H371   1.084       .  S
C368        N372   1.438       .  S
N370        H373   1.046       .  S
N370        H374   1.046       .  S
N372        H375   1.046       .  S
N372        H376   1.046       .  S
C381        C382   1.412       .  A
C381        C386   1.402       .  A
C382        C383   1.406       .  A
C382        N387   1.438       .  S
C383        C384   1.404       .  A
C383        H388   1.084       .  S
C384        C389   1.485       .  S
C384        C385   1.412       .  A
C385        C386   1.402       .  A
C385        N390   1.438       .  S
C386        H391   1.084       .  S
N387        H407   1.046       .  S
N387        H408   1.046       .  S
C389        C392   1.400       .  A
C389        C396   1.409       .  A
N390        H405   1.046       .  S
N390        H406   1.045       .  S
C392        C393   1.401       .  A
C392        H397   1.084   1_556  S
C393        C394   1.418       .  A
C393        N398   1.437   1_556  S
C394        C395   1.409       .  A
C395        C396   1.407       .  A
C395        H399   1.083       .  S
C396        N400   1.438       .  S
N398        H401   1.046       .  S
N398        H402   1.046       .  S
N400        H403   1.046       .  S
N400        H404   1.046       .  S
C409        C410   1.422       .  A
C409        C414   1.410       .  A
C410        C411   1.404       .  A
C410        N415   1.438       .  S
C411        C412   1.397       .  A
C411        H416   1.084       .  S
C412        C417   1.473       .  S
C412        C413   1.405       .  A
C413        C414   1.402       .  A
C413        N418   1.438       .  S
C414        H419   1.083       .  S
N415        H435   1.046       .  S
N415        H436   1.046       .  S
C417        C420   1.399       .  A
C417        C424   1.406       .  A
N418        H433   1.046       .  S
N418        H434   1.046       .  S
C420        C421   1.402       .  A
C420        H425   1.084       .  S
C421        C422   1.416       .  A
C421        N426   1.438       .  S
C422        C423   1.405       .  A
C423        C424   1.403       .  A
C423        H427   1.084       .  S
C424        N428   1.438       .  S
N426        H429   1.046       .  S
N426        H430   1.046       .  S
N428        H431   1.046       .  S
N428        H432   1.046       .  S
C437        C438   1.411       .  A
C437        C442   1.403       .  A
C438        C439   1.404       .  A
C438        N443   1.438       .  S
C439        C440   1.404       .  A
C439        H444   1.084       .  S
C440        C445   1.489       .  S
C440        C441   1.413       .  A
C441        C442   1.407       .  A
C441        N446   1.438       .  S
C442        H447   1.083       .  S
N443        H463   1.046       .  S
N443        H464   1.046       .  S
C445        C448   1.405       .  A
C445        C452   1.413       .  A
N446        H461   1.046       .  S
N446        H462   1.046       .  S
C448        C449   1.408       .  A
C448        H453   1.084       .  S
C449        C450   1.413       .  A
C449        N454   1.438       .  S
C450        C451   1.401       .  A
C451        C452   1.403       .  A
C451        H455   1.084       .  S
C452        N456   1.438       .  S
N454        H457   1.046       .  S
N454        H458   1.046       .  S
N456        H459   1.046       .  S
N456        H460   1.046       .  S
C465        C466   1.418       .  A
C465        C470   1.404   1_554  A
C466        C467   1.406       .  A
C466        N471   1.438       .  S
C467        C468   1.399       .  A
C467        H472   1.084       .  S
C468        C473   1.475       .  S
C468        C469   1.408   1_554  A
C469        C470   1.403       .  A
C469        N474   1.438       .  S
C470        H475   1.084       .  S
N471        H491   1.045       .  S
N471        H492   1.046       .  S
C473        C476   1.401       .  A
C473        C480   1.407   1_554  A
N474        H489   1.046       .  S
N474        H490   1.045       .  S
C476        C477   1.407       .  A
C476        H481   1.084       .  S
C477        C478   1.414       .  A
C477        N482   1.437       .  S
C478        C479   1.405   1_554  A
C479        C480   1.401       .  A
C479        H483   1.084       .  S
C480        N484   1.439       .  S
N482        H485   1.046       .  S
N482        H486   1.045       .  S
N484        H487   1.046       .  S
N484        H488   1.045       .  S
