geometry optimzed in LAMMPS
_audit_creation_date              2020-12-01 
_audit_creation_method            'lammps2cif' 
_symmetry_space_group_name_H-M    'P1' 
_symmetry_Int_Tables_number       1 
_symmetry_cell_setting            triclinic 
loop_ 
_symmetry_equiv_pos_as_xyz 
  x,y,z 
_cell_length_a                    50.36634482 
_cell_length_b                    50.3021334284925 
_cell_length_c                    50.286537046376495 
_cell_angle_alpha                 89.90918995161037 
_cell_angle_beta                  90.0842619366794 
_cell_angle_gamma                 89.99218019814465 
loop_ 
_atom_site_label 
_atom_site_type_symbol 
_atom_site_fract_x 
_atom_site_fract_y 
_atom_site_fract_z 
_atom_site_charge 
O1          O  0.86153007  0.47371820  0.82351679    -0.72500
O2          O  0.82110115  0.52912525  0.86413216    -0.73500
O3          O  0.86079056  0.52957164  0.82430226    -0.62100
O4          O  0.82151917  0.47334316  0.86320813    -0.70500
O5          O  0.85280258  0.47300507  0.89446342    -0.70100
O6          O  0.89207121  0.52973621  0.85557283    -0.61400
O7          O  0.85279821  0.52937576  0.89493179    -0.73900
O8          O  0.89238057  0.47333795  0.85514690    -0.72600
Cu9        Cu  0.84013600  0.50145192  0.84267646     1.04600
Cu10       Cu  0.87361662  0.50135157  0.87614147     1.04300
C11         C  0.88332648  0.46479986  0.83303691     0.93700
C12         C  0.83070695  0.53796057  0.88591431     0.92800
C13         C  0.88250700  0.53851741  0.83376321     0.84900
C14         C  0.83096692  0.46432073  0.88494724     0.91200
O15         O  0.70936548  0.71756608  0.06306524    -0.72500
O16         O  0.74918632  0.67438612  0.00928772    -0.73500
O17         O  0.70996592  0.71531607  0.00660598    -0.62100
O18         O  0.74860331  0.67672378  0.06553016    -0.70500
O19         O  0.71658696  0.64637881  0.06658170    -0.70100
O20         O  0.67847115  0.68445453  0.00770880    -0.61400
O21         O  0.71707770  0.64409565  0.00988367    -0.73900
O22         O  0.67810470  0.68641129  0.06446858    -0.72600
Cu23       Cu  0.73041640  0.69711482  0.03607052     1.04600
Cu24       Cu  0.69645901  0.66430828  0.03715871     1.04300
C25         C  0.68766836  0.70845787  0.07251671     0.93700
C26         C  0.73931090  0.65248402  0.00110828     0.92800
C27         C  0.68812818  0.70577297  0.99783021     0.84900
C28         C  0.73851895  0.65558094  0.07539924     0.91200
O29         O  0.50604859  0.86133742  0.85719233    -0.72500
O30         O  0.56484700  0.82239035  0.89430434    -0.73500
O31         O  0.56264489  0.86259866  0.85512985    -0.62100
O32         O  0.50829397  0.82087272  0.89605646    -0.70500
O33         O  0.50776115  0.79013457  0.86438536    -0.70100
O34         O  0.56174507  0.83170488  0.82362103    -0.61400
O35         O  0.56370504  0.79099771  0.86330023    -0.73900
O36         O  0.50555914  0.83096345  0.82520264    -0.72600
Cu37       Cu  0.53548264  0.84287634  0.87677603     1.04600
Cu38       Cu  0.53472649  0.80988776  0.84299300     1.04300
C39         C  0.49648265  0.85235889  0.83546724     0.93700
C40         C  0.57332915  0.80045180  0.88483446     0.92800
C41         C  0.57063325  0.85362077  0.83277470     0.84900
C42         C  0.49950482  0.79898313  0.88664770     0.91200
O43         O  0.73806868  0.02760075  0.69298308    -0.72500
O44         O  0.69921698  0.97270868  0.73484575    -0.73500
O45         O  0.73796399  0.97210887  0.69389963    -0.62100
O46         O  0.69971442  0.02845756  0.73398097    -0.70500
O47         O  0.66750988  0.02859394  0.70372066    -0.70100
O48         O  0.70605085  0.97162186  0.66333019    -0.61400
O49         O  0.66742644  0.97175253  0.70417095    -0.73900
O50         O  0.70582442  0.02814048  0.66275937    -0.72600
Cu51       Cu  0.71981538  0.00022005  0.71496826     1.04600
Cu52       Cu  0.68550118  0.00001321  0.68240488     1.04300
C53         C  0.72823619  0.03639294  0.67129647     0.93700
C54         C  0.67724369  0.96355283  0.72614607     0.92800
C55         C  0.72830507  0.96321627  0.67221417     0.84900
C56         C  0.67765407  0.03740141  0.72527989     0.91200
O57         O  0.05604796  0.68398026  0.67586823    -0.72500
O58         O  0.00080186  0.64358531  0.71559866    -0.73500
O59         O  0.99955236  0.68319482  0.67638426    -0.62100
O60         O  0.05712427  0.64411012  0.71515970    -0.70500
O61         O  0.05739250  0.67511273  0.74655281    -0.70100
O62         O  0.99948392  0.71454517  0.70744053    -0.61400
O63         O  0.00152114  0.67439983  0.74725980    -0.73900
O64         O  0.05569361  0.71556321  0.70673067    -0.72600
Cu65       Cu  0.02838835  0.66267369  0.69463529     1.04600
Cu66       Cu  0.02851558  0.69603949  0.72810032     1.04300
C67         C  0.06457689  0.70604910  0.68498390     0.93700
C68         C  0.99270084  0.65259280  0.73784113     0.92800
C69         C  0.99031718  0.70484783  0.68580591     0.84900
C70         C  0.06623293  0.65329416  0.73700595     0.91200
O71         O  0.82137825  0.82548250  0.49794870    -0.72500
O72         O  0.85430828  0.78439669  0.55828982    -0.73500
O73         O  0.81622047  0.82621845  0.55374636    -0.62100
O74         O  0.85969089  0.78346681  0.50250281    -0.70500
O75         O  0.89124756  0.81426632  0.50486083    -0.70100
O76         O  0.84867941  0.85602085  0.55660487    -0.61400
O77         O  0.88601353  0.81499783  0.56095648    -0.73900
O78         O  0.85356549  0.85555528  0.50047817    -0.72600
Cu79       Cu  0.83672640  0.80379402  0.52798156     1.04600
Cu80       Cu  0.87101126  0.83618972  0.53076809     1.04300
C81         C  0.83197583  0.84720492  0.49009047     0.93700
C82         C  0.87540581  0.79344432  0.56912232     0.92800
C83         C  0.82571091  0.84774743  0.56327625     0.84900
C84         C  0.88246225  0.79231253  0.49574278     0.91200
O85         O  0.56219698  0.21026599  0.86055893    -0.72500
O86         O  0.50424171  0.16963881  0.82369189    -0.73500
O87         O  0.50657206  0.20885965  0.86390704    -0.62100
O88         O  0.56003431  0.17094259  0.81962121    -0.70500
O89         O  0.56278130  0.13914415  0.85022691    -0.70100
O90         O  0.50901694  0.17742069  0.89490918    -0.61400
O91         O  0.50604689  0.13833217  0.85484375    -0.73900
O92         O  0.56530330  0.17815746  0.89077088    -0.72600
Cu93       Cu  0.53320974  0.19099285  0.84087477     1.04600
Cu94       Cu  0.53594120  0.15708257  0.87375267     1.04300
C95         C  0.57262539  0.20073014  0.88169733     0.93700
C96         C  0.49575396  0.14786181  0.83364272     0.92800
C97         C  0.49939456  0.19928608  0.88626420     0.84900
C98         C  0.56974551  0.14900533  0.82785976     0.91200
O99         O  0.74751975  0.32629737  0.06088201    -0.72500
O100        O  0.70715040  0.28729142  0.00435161    -0.73500
O101        O  0.74730637  0.32683969  0.00489263    -0.62100
O102        O  0.70744728  0.28651504  0.06030820    -0.70500
O103        O  0.67661044  0.31813843  0.06054635    -0.70100
O104        O  0.71616717  0.35818044  0.00459680    -0.61400
O105        O  0.67643796  0.31899858  0.00380629    -0.73900
O106        O  0.71627246  0.35747289  0.06132908    -0.72600
Cu107      Cu  0.72845191  0.30565687  0.03258065     1.04600
Cu108      Cu  0.69527703  0.33933316  0.03259385     1.04300
C109        C  0.73809305  0.34794467  0.07015232     0.93700
C110        C  0.68555831  0.29696723  0.99514086     0.92800
C111        C  0.73798575  0.34867003  0.99594190     0.84900
C112        C  0.68572497  0.29605530  0.06915284     0.91200
O113        O  0.86209805  0.52582189  0.24718150    -0.72500
O114        O  0.82125941  0.47065489  0.20668600    -0.73500
O115        O  0.86251428  0.46948287  0.24529070    -0.62100
O116        O  0.82096031  0.52711418  0.20789849    -0.70500
O117        O  0.85171058  0.52778824  0.17630804    -0.70100
O118        O  0.89253867  0.47009240  0.21298249    -0.61400
O119        O  0.85182539  0.47086081  0.17487095    -0.73900
O120        O  0.89217244  0.52695087  0.21494105    -0.72600
Cu121      Cu  0.84062497  0.49822309  0.22788627     1.04600
Cu122      Cu  0.87309389  0.49898283  0.19364513     1.04300
C123        C  0.88348357  0.53521255  0.23732978     0.93700
C124        C  0.83028194  0.46178389  0.18472166     0.92800
C125        C  0.88389922  0.46062977  0.23487953     0.84900
C126        C  0.83015137  0.53670161  0.18621915     0.91200
O127        O  0.00722477  0.66904928  0.32275890    -0.72500
O128        O  0.06258761  0.71062591  0.36238890    -0.73500
O129        O  0.06318924  0.67200048  0.32112174    -0.62100
O130        O  0.00689500  0.70799046  0.36389033    -0.70500
O131        O  0.00870986  0.67565477  0.39402247    -0.70100
O132        O  0.06593639  0.64046278  0.35201498    -0.61400
O133        O  0.06506544  0.67853995  0.39272864    -0.73900
O134        O  0.00951505  0.63727927  0.35341822    -0.72600
Cu135      Cu  0.03487828  0.69104925  0.34144860     1.04600
Cu136      Cu  0.03739194  0.65684316  0.37408300     1.04300
C137        C  0.99957658  0.64664815  0.33199033     0.93700
C138        C  0.07248934  0.70109570  0.38376781     0.92800
C139        C  0.07351747  0.65058861  0.33001173     0.84900
C140        C  0.99903896  0.69757937  0.38565766     0.91200
O141        O  0.16859588  0.82066118  0.56157918    -0.72500
O142        O  0.20959563  0.86399059  0.50926234    -0.73500
O143        O  0.17122743  0.82336025  0.50516305    -0.62100
O144        O  0.20710965  0.86107919  0.56580222    -0.70500
O145        O  0.23894056  0.83050973  0.56543757    -0.70100
O146        O  0.20301285  0.79272621  0.50538797    -0.61400
O147        O  0.24171739  0.83370127  0.50962782    -0.73900
O148        O  0.19995286  0.78957152  0.56120764    -0.72600
Cu149      Cu  0.18798635  0.84332527  0.53542624     1.04600
Cu150      Cu  0.22202056  0.81054873  0.53540262     1.04300
C151        C  0.17774799  0.79841343  0.56964995     0.93700
C152        C  0.23222405  0.85577697  0.50138951     0.92800
C153        C  0.18139489  0.80201059  0.49593096     0.84900
C154        C  0.22888431  0.85175947  0.57497150     0.91200
O155        O  0.34786523  0.02662065  0.68199156    -0.72500
O156        O  0.38341902  0.97011932  0.72520352    -0.73500
O157        O  0.34506850  0.97010600  0.68403685    -0.62100
O158        O  0.38554355  0.02656209  0.72338476    -0.70500
O159        O  0.35341284  0.02858735  0.75354199    -0.70100
O160        O  0.31296415  0.97216525  0.71419057    -0.61400
O161        O  0.35210984  0.97259657  0.75616251    -0.73900
O162        O  0.31514173  0.02824525  0.71151537    -0.72600
Cu163      Cu  0.36658215  0.99822291  0.70263008     1.04600
Cu164      Cu  0.33222623  0.00044878  0.73490254     1.04300
C165        C  0.32586407  0.03631773  0.68992602     0.93700
C166        C  0.37387614  0.96278586  0.74752987     0.92800
C167        C  0.32250170  0.96246724  0.69277568     0.84900
C168        C  0.37583630  0.03637838  0.74467992     0.91200
O169        O  0.70757708  0.02932167  0.31622074    -0.72500
O170        O  0.74655304  0.97444877  0.35917214    -0.73500
O171        O  0.70633695  0.97339230  0.31897407    -0.62100
O172        O  0.74759048  0.03042247  0.35654391    -0.70500
O173        O  0.71624230  0.03197356  0.38754402    -0.70100
O174        O  0.67520250  0.97504944  0.35018502    -0.61400
O175        O  0.71488214  0.97537506  0.38986547    -0.73900
O176        O  0.67685774  0.03159024  0.34780779    -0.72600
Cu177      Cu  0.72811121  0.00179942  0.33662735     1.04600
Cu178      Cu  0.69470183  0.00357054  0.36994014     1.04300
C179        C  0.68611182  0.03916475  0.32540604     0.93700
C180        C  0.73690185  0.96627799  0.38118113     0.92800
C181        C  0.68426612  0.96537982  0.32857836     0.84900
C182        C  0.73830092  0.04011728  0.37806368     0.91200
O183        O  0.56075119  0.85885432  0.21529883    -0.72500
O184        O  0.50430986  0.81774591  0.17647302    -0.73500
O185        O  0.50422298  0.85784845  0.21587850    -0.62100
O186        O  0.56089341  0.81934299  0.17595058    -0.70500
O187        O  0.56204348  0.78813973  0.20726593    -0.70100
O188        O  0.50525688  0.82679686  0.24734532    -0.61400
O189        O  0.50593373  0.78614493  0.20732472    -0.73900
O190        O  0.56102653  0.82807318  0.24704027    -0.72600
Cu191      Cu  0.53245037  0.83951168  0.19476933     1.04600
Cu192      Cu  0.53354025  0.80616707  0.22832182     1.04300
C193        C  0.56967039  0.84988096  0.23735279     0.93700
C194        C  0.49644235  0.79537243  0.18562521     0.92800
C195        C  0.49620243  0.84867681  0.23814126     0.84900
C196        C  0.57058392  0.79789306  0.18543673     0.91200
O197        O  0.20451589  0.52985112  0.81897549    -0.72500
O198        O  0.24530226  0.47267740  0.85800791    -0.73500
O199        O  0.20480897  0.47386781  0.81803581    -0.62100
O200        O  0.24503514  0.52914713  0.85899183    -0.70500
O201        O  0.21361309  0.52924202  0.88996100    -0.70100
O202        O  0.17417357  0.47309086  0.84978545    -0.61400
O203        O  0.21408709  0.47242713  0.88913037    -0.73900
O204        O  0.17378598  0.52974850  0.85061044    -0.72600
Cu205      Cu  0.22605049  0.50143199  0.83741348     1.04600
Cu206      Cu  0.19288072  0.50109027  0.87098510     1.04300
C207        C  0.18271635  0.53862413  0.82856217     0.93700
C208        C  0.23584676  0.46340811  0.87970542     0.92800
C209        C  0.18308858  0.46487566  0.82751419     0.84900
C210        C  0.23551517  0.53805216  0.88075835     0.91200
O211        O  0.36420283  0.71054953  0.00633333    -0.72500
O212        O  0.32233735  0.66957349  0.05948981    -0.73500
O213        O  0.36348967  0.70827758  0.06226302    -0.62100
O214        O  0.32316589  0.67155355  0.00371785    -0.70500
O215        O  0.35364618  0.63962986  0.00365864    -0.70100
O216        O  0.39414481  0.67654359  0.06150088    -0.61400
O217        O  0.35342372  0.63818068  0.06008939    -0.73900
O218        O  0.39426588  0.67823837  0.00469134    -0.72600
Cu219      Cu  0.34225180  0.69112009  0.03297348     1.04600
Cu220      Cu  0.37494889  0.65700661  0.03244786     1.04300
C221        C  0.38571258  0.70091847  0.99709238     0.93700
C222        C  0.33128073  0.64748802  0.06815142     0.92800
C223        C  0.38512633  0.69825425  0.07103983     0.84900
C224        C  0.33210086  0.64959791  0.99465828     0.91200
O225        O  0.21307118  0.47237483  0.17049522    -0.72500
O226        O  0.17343662  0.52705436  0.21234140    -0.73500
O227        O  0.21232125  0.52860208  0.17254457    -0.62100
O228        O  0.17392877  0.47050707  0.20995521    -0.70500
O229        O  0.20498188  0.46962178  0.24140244    -0.70100
O230        O  0.24407206  0.52737981  0.20327957    -0.61400
O231        O  0.20471455  0.52575425  0.24353830    -0.73900
O232        O  0.24462361  0.47151555  0.20143331    -0.72600
Cu233      Cu  0.19205839  0.49966539  0.19028827     1.04600
Cu234      Cu  0.22569605  0.49854199  0.22355568     1.04300
C235        C  0.23511394  0.46344520  0.17933694     0.93700
C236        C  0.18298777  0.53516133  0.23441948     0.92800
C237        C  0.23435749  0.53693475  0.18182930     0.84900
C238        C  0.18339177  0.46081743  0.23141515     0.91200
O239        O  0.39177134  0.31833125  0.00301471    -0.72500
O240        O  0.35018259  0.35859330  0.05713171    -0.73500
O241        O  0.39091233  0.32065587  0.05939312    -0.62100
O242        O  0.35118176  0.35665904  0.00064984    -0.70500
O243        O  0.32049702  0.32493465  0.00119591    -0.70100
O244        O  0.36035119  0.28882507  0.06053505    -0.61400
O245        O  0.31911643  0.32718822  0.05715430    -0.73900
O246        O  0.36184393  0.28587920  0.00469870    -0.72600
Cu247      Cu  0.37203357  0.33968685  0.02999006     1.04600
Cu248      Cu  0.33936670  0.30553305  0.03087177     1.04300
C249        C  0.38351871  0.29548888  0.99575960     0.93700
C250        C  0.32817168  0.34930912  0.06557500     0.92800
C251        C  0.38186827  0.29911189  0.06926194     0.84900
C252        C  0.32961622  0.34671501  0.99177662     0.91200
O253        O  0.55939775  0.18470803  0.17376649    -0.72500
O254        O  0.50421103  0.14533972  0.21529226    -0.73500
O255        O  0.50291411  0.18567529  0.17616118    -0.62100
O256        O  0.56066904  0.14470188  0.21268857    -0.70500
O257        O  0.56192525  0.17522977  0.24455201    -0.70100
O258        O  0.50532995  0.21703357  0.20715414    -0.61400
O259        O  0.50598599  0.17608421  0.24691518    -0.73900
O260        O  0.56115291  0.21570746  0.20516393    -0.72600
Cu261      Cu  0.53167139  0.16404649  0.19336059     1.04600
Cu262      Cu  0.53359681  0.19710679  0.22706671     1.04300
C263        C  0.56907335  0.20625097  0.18300091     0.93700
C264        C  0.49671340  0.15427444  0.23781981     0.92800
C265        C  0.49536238  0.20795258  0.18565665     0.84900
C266        C  0.57039069  0.15358322  0.23438248     0.91200
O267        O  0.00458629  0.32653391  0.74840454    -0.72500
O268        O  0.05987835  0.28935398  0.70441526    -0.73500
O269        O  0.06056416  0.32788322  0.74555012    -0.62100
O270        O  0.00375035  0.28758834  0.70740922    -0.70500
O271        O  0.00173759  0.31962388  0.67698840    -0.70100
O272        O  0.05859695  0.35974151  0.71492642    -0.61400
O273        O  0.05790874  0.32163705  0.67428263    -0.73900
O274        O  0.00210637  0.35795299  0.71738475    -0.72600
Cu275      Cu  0.03227002  0.30667272  0.72752054     1.04600
Cu276      Cu  0.02997270  0.34086293  0.69486381     1.04300
C277        C  0.99459213  0.34816038  0.73955433     0.93700
C278        C  0.06775510  0.29978046  0.68261012     0.92800
C279        C  0.06861515  0.35003502  0.73614956     0.84900
C280        C  0.99383084  0.29732077  0.68615324     0.91200
O281        O  0.82398136  0.17210054  0.55812090    -0.72500
O282        O  0.86602620  0.21077232  0.50312922    -0.73500
O283        O  0.82580219  0.17114674  0.50230465    -0.62100
O284        O  0.86434107  0.21152866  0.55897428    -0.70500
O285        O  0.89510146  0.17988508  0.56095919    -0.70100
O286        O  0.85695744  0.13988444  0.50351868    -0.61400
O287        O  0.89677615  0.17907500  0.50423353    -0.73900
O288        O  0.85519340  0.14089552  0.56009433    -0.72600
Cu289      Cu  0.84397009  0.19251639  0.53059645     1.04600
Cu290      Cu  0.87711651  0.15883258  0.53227010     1.04300
C291        C  0.83289801  0.15031801  0.56758909     0.93700
C292        C  0.88792362  0.20099411  0.49498221     0.92800
C293        C  0.83535106  0.14917469  0.49396412     0.84900
C294        C  0.88566010  0.20202210  0.56893085     0.91200
O295        O  0.24829156  0.17324661  0.51029178    -0.72500
O296        O  0.20601376  0.21503265  0.56315314    -0.73500
O297        O  0.24640911  0.17545413  0.56647140    -0.62100
O298        O  0.20779147  0.21297435  0.50717362    -0.70500
O299        O  0.17694963  0.18142797  0.50717632    -0.70100
O300        O  0.21535794  0.14409064  0.56648290    -0.61400
O301        O  0.17559446  0.18302825  0.56396459    -0.73900
O302        O  0.21707361  0.14206128  0.50985550    -0.72600
Cu303      Cu  0.22822846  0.19526947  0.53673463     1.04600
Cu304      Cu  0.19517361  0.16153477  0.53683627     1.04300
C305        C  0.23932206  0.15110624  0.50172755     0.93700
C306        C  0.18429257  0.20545470  0.57201430     0.92800
C307        C  0.23675445  0.15394640  0.57591288     0.84900
C308        C  0.18619298  0.20325466  0.49802782     0.91200
O309        O  0.35913197  0.97354602  0.40162946    -0.72500
O310        O  0.40166482  0.02873186  0.36292155    -0.73500
O311        O  0.36061360  0.02999589  0.40128407    -0.62100
O312        O  0.39990728  0.97189073  0.36286503    -0.70500
O313        O  0.36923207  0.97267630  0.33108606    -0.70100
O314        O  0.33021431  0.03004091  0.36919098    -0.61400
O315        O  0.37145923  0.02860343  0.33068721    -0.73900
O316        O  0.32813477  0.97462756  0.37015185    -0.72600
Cu317      Cu  0.38144938  0.00097511  0.38331091     1.04600
Cu318      Cu  0.34877515  0.00149929  0.34912808     1.04300
C319        C  0.33675252  0.96594200  0.39241596     0.93700
C320        C  0.39314703  0.03732301  0.34057839     0.92800
C321        C  0.33894361  0.03875368  0.39132750     0.84900
C322        C  0.39071937  0.96332023  0.34076535     0.91200
O323        O  0.00963794  0.28444712  0.35889714    -0.72500
O324        O  0.06301710  0.32438733  0.31626493    -0.73500
O325        O  0.06528882  0.28515962  0.35730146    -0.62100
O326        O  0.00705716  0.32385769  0.31812002    -0.70500
O327        O  0.00738481  0.35515866  0.34923301    -0.70100
O328        O  0.06624554  0.31729617  0.38753568    -0.61400
O329        O  0.06381727  0.35590218  0.34723192    -0.73900
O330        O  0.01012334  0.31636941  0.38944383    -0.72600
Cu331      Cu  0.03621380  0.30335932  0.33651416     1.04600
Cu332      Cu  0.03689677  0.33733599  0.36937922     1.04300
C333        C  0.00174339  0.29400261  0.38098899     0.93700
C334        C  0.07199957  0.34629947  0.32526238     0.92800
C335        C  0.07471348  0.29506460  0.37873175     0.84900
C336        C  0.99802138  0.34557774  0.32766245     0.91200
C337        C  0.12532221  0.27216458  0.42299731     0.20700
C338        C  0.14470685  0.27424413  0.44297789    -0.39100
C339        C  0.15388448  0.25010101  0.45356689     0.19700
C340        C  0.14412612  0.22576169  0.44523505     0.22400
C341        C  0.12507181  0.22366790  0.42492435    -0.39600
C342        C  0.11622887  0.24780101  0.41400613     0.21200
N343        N  0.11222812  0.29213786  0.41098235    -0.32900
C344        C  0.09493096  0.28043134  0.39397045    -0.10500
C345        C  0.09700049  0.25280138  0.39508879    -0.29300
N346        N  0.15465416  0.20590250  0.45975204    -0.45900
C347        C  0.17152317  0.21765456  0.47716817    -0.05200
C348        C  0.17174676  0.24518287  0.47378753    -0.22500
H349        H  0.15168817  0.29327385  0.45017268     0.19300
H350        H  0.11726073  0.20468065  0.41851656     0.18100
H351        H  0.08499480  0.23836124  0.38460599     0.14400
H352        H  0.18263761  0.25968683  0.48534669     0.14200
H353        H  0.11444392  0.31247513  0.41459599     0.32400
H354        H  0.15039668  0.18563588  0.45814974     0.35100
C355        C  0.26502251  0.10637484  0.45324589     0.20700
C356        C  0.26448156  0.08518886  0.43519871    -0.39100
C357        C  0.28908947  0.07795399  0.42448617     0.19700
C358        C  0.31251996  0.09058566  0.43149007     0.22400
C359        C  0.31296315  0.11219231  0.44906272    -0.39600
C360        C  0.28829342  0.11962264  0.45957273     0.21200
N361        N  0.24457078  0.11603757  0.46731408    -0.32900
C362        C  0.25484492  0.13576828  0.48245739    -0.10500
C363        C  0.28200373  0.13875519  0.47806053    -0.29300
N364        N  0.33347017  0.07845637  0.42029943    -0.45900
C365        C  0.32314024  0.05830303  0.40579484    -0.05200
C366        C  0.29557898  0.05747026  0.40766785    -0.22500
H367        H  0.24635854  0.07465665  0.43040254     0.19300
H368        H  0.33124037  0.12200375  0.45471021     0.18100
H369        H  0.29545843  0.15241966  0.48779336     0.14400
H370        H  0.28226850  0.04299562  0.39894907     0.14200
H371        H  0.22489712  0.10942795  0.46687187     0.32400
H372        H  0.35350588  0.08330732  0.42264376     0.35100
C373        C  0.93181207  0.22382220  0.44464823     0.20700
C374        C  0.95118722  0.22193792  0.42476881    -0.39100
C375        C  0.96131051  0.24621402  0.41566170     0.19700
C376        C  0.95314521  0.27039339  0.42599522     0.22400
C377        C  0.93347139  0.27228482  0.44546207    -0.39600
C378        C  0.92296665  0.24809527  0.45415875     0.21200
N379        N  0.92002582  0.20375547  0.45765978    -0.32900
C380        C  0.90337964  0.21547924  0.47520871    -0.10500
C381        C  0.90438818  0.24304674  0.47343149    -0.29300
N382        N  0.96661715  0.29048674  0.41494819    -0.45900
C383        C  0.98303047  0.27902807  0.39709372    -0.05200
C384        C  0.98034387  0.25148421  0.39682638    -0.22500
H385        H  0.95809485  0.20302163  0.41722253     0.19300
H386        H  0.92706961  0.29117932  0.45348823     0.18100
H387        H  0.89394169  0.25739980  0.48554901     0.14400
H388        H  0.99127833  0.23729576  0.38494365     0.14200
H389        H  0.92337997  0.18341310  0.45509895     0.32400
H390        H  0.96469861  0.31073491  0.41917844     0.35100
C391        C  0.92344179  0.22661651  0.62350000     0.20700
C392        C  0.93938177  0.22556035  0.64640633    -0.39100
C393        C  0.94997350  0.24996958  0.65472971     0.19700
C394        C  0.94520938  0.27343931  0.64106698     0.22400
C395        C  0.92890263  0.27455724  0.61859373    -0.39600
C396        C  0.91808275  0.25032938  0.61050761     0.21200
N397        N  0.91242489  0.20612343  0.61041389    -0.32900
C398        C  0.89968946  0.21713221  0.58934337    -0.10500
C399        C  0.90255681  0.24459439  0.58884240    -0.29300
N400        N  0.95949751  0.29340256  0.65126476    -0.45900
C401        C  0.97343414  0.28266518  0.67161438    -0.05200
C402        C  0.96778397  0.25569921  0.67473502    -0.22500
H403        H  0.94389572  0.20705393  0.65645788     0.19300
H404        H  0.92554755  0.29283764  0.60771078     0.18100
H405        H  0.89522330  0.25833654  0.57396329     0.14400
H406        H  0.97674217  0.24189165  0.68863023     0.14200
H407        H  0.91364070  0.18595861  0.61532952     0.32400
H408        H  0.96049595  0.31290912  0.64414261     0.35100
C409        C  0.14784024  0.25287082  0.60946475     0.20700
C410        C  0.13534475  0.27729458  0.61433057    -0.39100
C411        C  0.11807455  0.27775603  0.63615698     0.19700
C412        C  0.11399840  0.25571670  0.65218460     0.22400
C413        C  0.12627161  0.23123756  0.64715239    -0.39600
C414        C  0.14307443  0.23061221  0.62500277     0.21200
N415        N  0.16402501  0.24688391  0.58916218    -0.32900
C416        C  0.16898806  0.22054071  0.59147539    -0.10500
C417        C  0.15633636  0.20964161  0.61354412    -0.29300
N418        N  0.09607280  0.26102028  0.67115704    -0.45900
C419        C  0.08832607  0.28644727  0.66690353    -0.05200
C420        C  0.10165341  0.29762094  0.64530231    -0.22500
H421        H  0.13828570  0.29443366  0.60162888     0.19300
H422        H  0.12239391  0.21377043  0.65912808     0.18100
H423        H  0.15644137  0.18909843  0.61998792     0.14400
H424        H  0.09925023  0.31738734  0.63710026     0.14200
H425        H  0.17032734  0.25959555  0.57398005     0.32400
H426        H  0.08891206  0.24789007  0.68556985     0.35100
C427        C  0.42336085  0.07953357  0.29245114     0.20700
C428        C  0.42922459  0.08864286  0.26679236    -0.39100
C429        C  0.44822403  0.10887700  0.26526027     0.19700
C430        C  0.46014114  0.11960282  0.28763427     0.22400
C431        C  0.45456944  0.11017703  0.31335661    -0.39600
C432        C  0.43584015  0.08954869  0.31485375     0.21200
N433        N  0.40643407  0.06004123  0.29898632    -0.32900
C434        C  0.40840517  0.05720668  0.32567703    -0.10500
C435        C  0.42660136  0.07521071  0.33638957    -0.29300
N436        N  0.47801647  0.13818616  0.28069129    -0.45900
C437        C  0.47782752  0.13879870  0.25373578    -0.05200
C438        C  0.45949709  0.12083027  0.24338774    -0.22500
H439        H  0.42002712  0.08021534  0.24926217     0.19300
H440        H  0.46443728  0.11797606  0.33081561     0.18100
H441        H  0.43223707  0.07749866  0.35704162     0.14400
H442        H  0.45553560  0.11655407  0.22266799     0.14200
H443        H  0.39467437  0.04891857  0.28601303     0.32400
H444        H  0.49051223  0.14881923  0.29339750     0.35100
C445        C  0.42620636  0.27822058  0.12052086     0.20700
C446        C  0.44781104  0.28010425  0.13808470    -0.39100
C447        C  0.45529961  0.25629998  0.15059193     0.19700
C448        C  0.44250367  0.23244204  0.14557884     0.22400
C449        C  0.42065033  0.23068204  0.12843446    -0.39600
C450        C  0.41294564  0.25448682  0.11624818     0.21200
N451        N  0.41637566  0.29743035  0.10475756    -0.32900
C452        C  0.39665348  0.28578920  0.09056539    -0.10500
C453        C  0.39372018  0.25912826  0.09738326    -0.29300
N454        N  0.45481013  0.21228849  0.15799281    -0.45900
C455        C  0.47531823  0.22342306  0.17133079    -0.05200
C456        C  0.47620160  0.25085922  0.16746194    -0.22500
H457        H  0.45846817  0.29853225  0.14117801     0.19300
H458        H  0.41087627  0.21198589  0.12425139     0.18100
H459        H  0.38027058  0.24477394  0.08869405     0.14400
H460        H  0.49101566  0.26464207  0.17474695     0.14200
H461        H  0.42310700  0.31703056  0.10323288     0.32400
H462        H  0.44994012  0.19212201  0.15700104     0.35100
C463        C  0.25815644  0.41426511  0.13424679     0.20700
C464        C  0.25629012  0.39566258  0.11363874    -0.39100
C465        C  0.28036759  0.38454976  0.10539349     0.19700
C466        C  0.30449289  0.39189734  0.11643522     0.22400
C467        C  0.30631949  0.41016118  0.13735277    -0.39600
C468        C  0.28217288  0.42086717  0.14596787     0.21200
N469        N  0.23830429  0.42841698  0.14489136    -0.32900
C470        C  0.24973260  0.44384098  0.16372674    -0.10500
C471        C  0.27702504  0.43956989  0.16520653    -0.29300
N472        N  0.32459775  0.37986523  0.10386057    -0.45900
C473        C  0.31311374  0.36449275  0.08503730    -0.05200
C474        C  0.28557025  0.36660313  0.08547478    -0.22500
H475        H  0.23753677  0.39053752  0.10444187     0.19300
H476        H  0.32516463  0.41591831  0.14597157     0.18100
H477        H  0.29124310  0.44952295  0.17791708     0.14400
H478        H  0.27143507  0.35724576  0.07222814     0.14200
H479        H  0.21826352  0.42782359  0.13951608     0.32400
H480        H  0.34489570  0.38217495  0.10760487     0.35100
C481        C  0.15323269  0.41540503  0.27616035     0.20700
C482        C  0.14629329  0.40523189  0.30108744    -0.39100
C483        C  0.12526691  0.38711422  0.30109735     0.19700
C484        C  0.11245979  0.37924307  0.27799962     0.22400
C485        C  0.11920313  0.38964893  0.25307335    -0.39600
C486        C  0.13993364  0.40818246  0.25313132     0.21200
N487        N  0.17129775  0.43430215  0.27111221    -0.32900
C488        C  0.16901902  0.43950128  0.24481277    -0.10500
C489        C  0.14981920  0.42355911  0.23285164    -0.29300
N490        N  0.09236398  0.36266509  0.28357127    -0.45900
C491        C  0.09215225  0.36064677  0.31039836    -0.05200
C492        C  0.11233267  0.37545158  0.32204514    -0.22500
H493        H  0.15591429  0.41166781  0.31922975     0.19300
H494        H  0.10851497  0.38441465  0.23513946     0.18100
H495        H  0.14336110  0.42386305  0.21231191     0.14400
H496        H  0.11646425  0.37789829  0.34303059     0.14200
H497        H  0.18342115  0.44399048  0.28488404     0.32400
H498        H  0.07885246  0.35436923  0.27017954     0.35100
C499        C  0.25847365  0.58587048  0.13709907     0.20700
C500        C  0.25750077  0.60349933  0.11554952    -0.39100
C501        C  0.28201797  0.61373973  0.10744907     0.19700
C502        C  0.30571222  0.60648664  0.11949474     0.22400
C503        C  0.30662370  0.58921201  0.14130317    -0.39600
C504        C  0.28207161  0.57938756  0.14974075     0.21200
N505        N  0.23819924  0.57218947  0.14758448    -0.32900
C506        C  0.24902403  0.55714383  0.16713478    -0.10500
C507        C  0.27624590  0.56127647  0.16932148    -0.29300
N508        N  0.32639034  0.61766019  0.10702079    -0.45900
C509        C  0.31565929  0.63246735  0.08728997    -0.05200
C510        C  0.28808965  0.63074166  0.08695746    -0.22500
H511        H  0.23911221  0.60848097  0.10554122     0.19300
H512        H  0.32511561  0.58343638  0.15066462     0.18100
H513        H  0.29007813  0.55122998  0.18241132     0.14400
H514        H  0.27448154  0.63994695  0.07303404     0.14200
H515        H  0.21839430  0.57245820  0.14131832     0.32400
H516        H  0.34652179  0.61536394  0.11158439     0.35100
C517        C  0.14077975  0.41328707  0.80427296     0.20700
C518        C  0.12235547  0.39255747  0.80637660    -0.39100
C519        C  0.11246600  0.38284874  0.78227078     0.19700
C520        C  0.11997366  0.39333745  0.75792610     0.22400
C521        C  0.13888191  0.41368765  0.75578084    -0.39600
C522        C  0.14913913  0.42309135  0.77992262     0.21200
N523        N  0.15198429  0.42683821  0.82428760    -0.32900
C524        C  0.16796336  0.44504003  0.81261519    -0.10500
C525        C  0.16691833  0.44326295  0.78497604    -0.29300
N526        N  0.10573642  0.38242721  0.73818973    -0.45900
C527        C  0.08934270  0.36474059  0.75013206    -0.05200
C528        C  0.09319804  0.36410773  0.77752521    -0.22500
H529        H  0.11567657  0.38503358  0.82540264     0.19300
H530        H  0.14464350  0.42204369  0.73679678     0.18100
H531        H  0.17696499  0.45573466  0.77060407     0.14400
H532        H  0.08223702  0.35267828  0.79209086     0.14200
H533        H  0.14882271  0.42403174  0.84463440     0.32400
H534        H  0.10659057  0.38719201  0.71797545     0.35100
C535        C  0.28260736  0.57885116  0.91410279     0.20700
C536        C  0.30769224  0.58569948  0.92395388    -0.39100
C537        C  0.30808900  0.60625999  0.94266098     0.19700
C538        C  0.28531109  0.61940089  0.95068419     0.22400
C539        C  0.26009781  0.61234019  0.94103066    -0.39600
C540        C  0.25965166  0.59137819  0.92262368     0.21200
N541        N  0.27689729  0.55896118  0.89729649    -0.32900
C542        C  0.25010034  0.55840245  0.89556497    -0.10500
C543        C  0.23857486  0.57831204  0.91099675    -0.29300
N544        N  0.29104302  0.63746417  0.96954295    -0.45900
C545        C  0.31755935  0.63531775  0.97379198    -0.05200
C546        C  0.32884105  0.61615720  0.95736456    -0.22500
H547        H  0.32551576  0.57522291  0.91809539     0.19300
H548        H  0.24212497  0.62186695  0.94795362     0.18100
H549        H  0.21763491  0.58225454  0.91377595     0.14400
H550        H  0.34935317  0.60975930  0.95686358     0.14200
H551        H  0.29029504  0.54577737  0.88853950     0.32400
H552        H  0.27764252  0.64954368  0.97974551     0.35100
C553        C  0.28301716  0.38065562  0.95049789     0.20700
C554        C  0.25819840  0.39126695  0.94356472    -0.39100
C555        C  0.25837179  0.41032242  0.92316677     0.19700
C556        C  0.28143259  0.41803147  0.91033888     0.22400
C557        C  0.30634425  0.40768890  0.91754317    -0.39600
C558        C  0.30621010  0.38887878  0.93822094     0.21200
N559        N  0.28829902  0.36336945  0.97023928    -0.32900
C560        C  0.31508456  0.36101462  0.97086873    -0.10500
C561        C  0.32694867  0.37658214  0.95123151    -0.29300
N562        N  0.27630948  0.43724301  0.89235554    -0.45900
C563        C  0.24987664  0.44212388  0.89421431    -0.05200
C564        C  0.23805109  0.42562910  0.91309866    -0.22500
H565        H  0.24016012  0.38565182  0.95380735     0.19300
H566        H  0.32455627  0.41434571  0.90827657     0.18100
H567        H  0.34796216  0.37922607  0.94760810     0.14400
H568        H  0.21744823  0.42542117  0.91917872     0.14200
H569        H  0.27469659  0.35488909  0.98340863     0.32400
H570        H  0.29006720  0.44720784  0.88046262     0.35100
C571        C  0.45606398  0.74714198  0.15256953     0.20700
C572        C  0.44907594  0.72184940  0.14297345    -0.39100
C573        C  0.42882645  0.72137003  0.12372383     0.19700
C574        C  0.41617175  0.74428210  0.11515532     0.22400
C575        C  0.42332541  0.76952155  0.12453940    -0.39600
C576        C  0.44389240  0.77005227  0.14333167     0.21200
N577        N  0.47571634  0.75317034  0.16969897    -0.32900
C578        C  0.47636045  0.78011164  0.17084889    -0.10500
C579        C  0.45680196  0.79131409  0.15473024    -0.29300
N580        N  0.39835114  0.73872824  0.09606440    -0.45900
C581        C  0.40000543  0.71217192  0.09199732    -0.05200
C582        C  0.41873571  0.70058804  0.10892568    -0.22500
H583        H  0.45921309  0.70397647  0.14938857     0.19300
H584        H  0.41412565  0.78750935  0.11710679     0.18100
H585        H  0.45298916  0.81222111  0.15132960     0.14400
H586        H  0.42463363  0.67991104  0.10978468     0.14200
H587        H  0.48865745  0.73989693  0.17904154     0.32400
H588        H  0.38664079  0.75231984  0.08559940     0.35100
C589        C  0.45870905  0.88253728  0.28752517     0.20700
C590        C  0.45272148  0.89152264  0.31322595    -0.39100
C591        C  0.43325959  0.91138534  0.31474578     0.22100
C592        C  0.42043815  0.92114280  0.29239060     0.22400
C593        C  0.42682592  0.91257318  0.26666250    -0.39600
C594        C  0.44660856  0.89306632  0.26511506     0.21200
N595        N  0.47708625  0.86447445  0.28069880    -0.32900
C596        C  0.47705168  0.86396223  0.25376873    -0.10500
C597        C  0.45839526  0.88156179  0.24328504    -0.29300
N598        N  0.40301743  0.94015633  0.29906821    -0.45900
C599        C  0.40519781  0.94297921  0.32576987    -0.05200
C600        C  0.42383558  0.92537250  0.33632069    -0.22500
H601        H  0.46282838  0.88397171  0.33068087     0.19300
H602        H  0.41745329  0.92086049  0.24912832     0.18100
H603        H  0.45440857  0.88573815  0.22253616     0.14400
H604        H  0.42996207  0.92341579  0.35686989     0.14200
H605        H  0.48968956  0.85403122  0.29347775     0.32400
H606        H  0.39112926  0.95126144  0.28614746     0.35100
C607        C  0.78597420  0.08104261  0.41066057     0.20700
C608        C  0.81128933  0.08821256  0.41993195    -0.39100
C609        C  0.81173238  0.10698137  0.44055534     0.19700
C610        C  0.78874139  0.11813241  0.45070717     0.22400
C611        C  0.76348602  0.11069289  0.44172428    -0.39600
C612        C  0.76302629  0.09159227  0.42151971     0.21200
N613        N  0.78005255  0.06231446  0.39255470    -0.32900
C614        C  0.75319756  0.06055651  0.39248715    -0.10500
C615        C  0.74188855  0.07857312  0.41015175    -0.29300
N616        N  0.79437272  0.13507973  0.47050082    -0.45900
C617        C  0.82108506  0.13432180  0.47336847    -0.05200
C618        C  0.83267275  0.11701967  0.45510101    -0.22500
H619        H  0.82923840  0.07927406  0.41221323     0.19300
H620        H  0.74549196  0.11861684  0.45038494     0.18100
H621        H  0.72105922  0.08101943  0.41482535     0.14400
H622        H  0.85351869  0.11225559  0.45297323     0.14200
H623        H  0.79340808  0.05040217  0.38209898     0.32400
H624        H  0.78083453  0.14578847  0.48197916     0.35100
C625        C  0.62155678  0.89228497  0.26017145     0.20700
C626        C  0.64179359  0.91129468  0.25805666    -0.39100
C627        C  0.65100352  0.92178134  0.28215590     0.19700
C628        C  0.64063385  0.91414810  0.30649559     0.22400
C629        C  0.62081207  0.89468583  0.30865491    -0.39600
C630        C  0.61179874  0.88398165  0.28455333     0.21200
N631        N  0.60808138  0.88083426  0.24018523    -0.32900
C632        C  0.58984821  0.86494019  0.25195725    -0.10500
C633        C  0.59173434  0.86608047  0.27957965    -0.29300
N634        N  0.65136131  0.92853845  0.32624826    -0.45900
C635        C  0.66892743  0.94512486  0.31437768    -0.05200
C636        C  0.66941969  0.94140057  0.28694521    -0.22500
H637        H  0.64927055  0.91799562  0.23902303     0.19300
H638        H  0.61248336  0.88887291  0.32762479     0.18100
H639        H  0.57918683  0.85622234  0.29400249     0.14400
H640        H  0.68088389  0.95235890  0.27241043     0.14200
H641        H  0.61076281  0.88399921  0.21981696     0.32400
H642        H  0.64681846  0.92738117  0.34649291     0.35100
C643        C  0.62205228  0.10988962  0.25550104     0.20700
C644        C  0.64072734  0.08927659  0.25331593    -0.39100
C645        C  0.65215903  0.08073864  0.27732716     0.19700
C646        C  0.64514557  0.09167642  0.30159013     0.22400
C647        C  0.62697186  0.11262363  0.30368448    -0.39600
C648        C  0.61584725  0.12137233  0.27972258     0.21200
N649        N  0.60694736  0.12025641  0.23603828    -0.32900
C650        C  0.59129495  0.13858220  0.24802604    -0.10500
C651        C  0.59647909  0.14008531  0.27517230    -0.29300
N652        N  0.65684350  0.07856797  0.32165802    -0.45900
C653        C  0.67169491  0.05937025  0.31015360    -0.05200
C654        C  0.66960092  0.06021776  0.28249872    -0.22500
H655        H  0.64538220  0.08003491  0.23446421     0.19300
H656        H  0.62127127  0.12092998  0.32268105     0.18100
H657        H  0.58646721  0.15226157  0.28978316     0.14400
H658        H  0.67843649  0.04673318  0.26828117     0.14200
H659        H  0.60687877  0.11483924  0.21598496     0.32400
H660        H  0.65443334  0.08207774  0.34199193     0.35100
C661        C  0.28187211  0.08109788  0.65700017     0.20700
C662        C  0.25725410  0.09142750  0.64913184    -0.39100
C663        C  0.25816630  0.11155448  0.62988513     0.19700
C664        C  0.28182822  0.12115229  0.61966185     0.22400
C665        C  0.30649505  0.11062322  0.62737236    -0.39600
C666        C  0.30553970  0.09003646  0.64622312     0.21200
N667        N  0.28618356  0.06109625  0.67416747    -0.32900
C668        C  0.31273575  0.05697385  0.67403510    -0.10500
C669        C  0.32553022  0.07452978  0.65677544    -0.29300
N670        N  0.27717798  0.13898573  0.60025714    -0.45900
C671        C  0.25041089  0.14004677  0.59764397    -0.05200
C672        C  0.23788362  0.12346838  0.61594730    -0.22500
H673        H  0.23870164  0.08367602  0.65672132     0.19300
H674        H  0.32496479  0.11730348  0.61864846     0.18100
H675        H  0.34656035  0.07573298  0.65252905     0.14400
H676        H  0.21683093  0.11955722  0.61777169     0.14200
H677        H  0.27191222  0.05045682  0.68481014     0.32400
H678        H  0.29127080  0.14833398  0.58825970     0.35100
C679        C  0.25151491  0.89297420  0.62821399     0.20700
C680        C  0.24978807  0.91216389  0.64842381    -0.39100
C681        C  0.27412594  0.92111650  0.65876263     0.19700
C682        C  0.29826415  0.91187268  0.64939593     0.22400
C683        C  0.29996095  0.89233307  0.62963750    -0.39600
C684        C  0.27569672  0.88317160  0.61956585     0.21200
N685        N  0.23150910  0.88265117  0.61378839    -0.32900
C686        C  0.24311826  0.86596490  0.59612809    -0.10500
C687        C  0.27059151  0.86556357  0.59930059    -0.29300
N688        N  0.31848733  0.92504918  0.66074081    -0.45900
C689        C  0.30725271  0.94260992  0.67771601    -0.05200
C690        C  0.27960057  0.94061424  0.67726494    -0.22500
H691        H  0.23095084  0.92010498  0.65504037     0.19300
H692        H  0.31882410  0.88534685  0.62208757     0.18100
H693        H  0.28496604  0.85488077  0.58742527     0.14400
H694        H  0.26544799  0.95272342  0.68798166     0.14200
H695        H  0.21129967  0.88706492  0.61546793     0.32400
H696        H  0.33871340  0.92263661  0.65677424     0.35100
C697        C  0.28139847  0.88973780  0.46372615     0.20700
C698        C  0.30715441  0.89688032  0.45611547    -0.39100
C699        C  0.30886132  0.91717037  0.43713411     0.19700
C700        C  0.28661565  0.92925114  0.42630187     0.22400
C701        C  0.26081479  0.92255268  0.43440745    -0.39600
C702        C  0.25912071  0.90238885  0.45362561     0.21200
N703        N  0.27453773  0.87104004  0.48146287    -0.32900
C704        C  0.24774262  0.87213045  0.48303377    -0.10500
C705        C  0.23734824  0.89145064  0.46604710    -0.29300
N706        N  0.29368606  0.94765091  0.40826249    -0.45900
C707        C  0.32059634  0.94747030  0.40803184    -0.05200
C708        C  0.33077676  0.92888267  0.42585758    -0.22500
H709        H  0.32458512  0.88735837  0.46439006     0.19300
H710        H  0.24339338  0.93230987  0.42638688     0.18100
H711        H  0.21670765  0.89678332  0.46326145     0.14400
H712        H  0.35142922  0.92460186  0.43002478     0.14200
H713        H  0.28730568  0.85878844  0.49234234     0.32400
H714        H  0.28107717  0.96006036  0.39736623     0.35100
C715        C  0.15269845  0.75454843  0.45210205     0.20700
C716        C  0.14616001  0.72893518  0.44325186    -0.39100
C717        C  0.12506305  0.72753927  0.42509879     0.19700
C718        C  0.11197225  0.75000968  0.41599804     0.22400
C719        C  0.11824706  0.77553828  0.42514282    -0.39600
C720        C  0.13892319  0.77687899  0.44371720     0.21200
N721        N  0.17062010  0.76100830  0.47077667    -0.32900
C722        C  0.16771045  0.78748438  0.47474709    -0.10500
C723        C  0.14825103  0.79813652  0.45815636    -0.29300
N724        N  0.09220321  0.74338155  0.39939470    -0.45900
C725        C  0.09231205  0.71650287  0.39841172    -0.05200
C726        C  0.11247695  0.70582825  0.41416556    -0.22500
H727        H  0.15616051  0.71135356  0.45062827     0.19300
H728        H  0.10725189  0.79296206  0.41891443     0.18100
H729        H  0.14116110  0.81844302  0.45753599     0.14400
H730        H  0.11697184  0.68504398  0.41750878     0.14200
H731        H  0.18296546  0.74800127  0.48125283     0.32400
H732        H  0.07874270  0.75624831  0.39020944     0.35100
C733        C  0.12482895  0.60906401  0.30543273     0.20700
C734        C  0.14398943  0.58894682  0.30687304    -0.39100
C735        C  0.15262305  0.57893639  0.28243556     0.19700
C736        C  0.14263403  0.58802303  0.25840374     0.22400
C737        C  0.12388524  0.60859257  0.25693669    -0.39600
C738        C  0.11548152  0.61885117  0.28140870     0.21200
N739        N  0.11171190  0.62001339  0.32581317    -0.32900
C740        C  0.09405382  0.63700710  0.31472131    -0.10500
C741        C  0.09602232  0.63721554  0.28708634    -0.29300
N742        N  0.15235412  0.57366041  0.23817634    -0.45900
C743        C  0.16884408  0.55559166  0.24945246    -0.05200
C744        C  0.16979716  0.55841337  0.27697318    -0.22500
H745        H  0.15095702  0.58102818  0.32565561     0.19300
H746        H  0.11575728  0.61543258  0.23819768     0.18100
H747        H  0.08361606  0.64787750  0.27307601     0.14400
H748        H  0.18067080  0.54633095  0.29110466     0.14200
H749        H  0.11390698  0.61545711  0.34598095     0.32400
H750        H  0.14782310  0.57577511  0.21799811     0.35100
C751        C  0.91672780  0.57682005  0.28421673     0.20700
C752        C  0.92651617  0.58416077  0.30931017    -0.39100
C753        C  0.94661853  0.60347734  0.30923946     0.19700
C754        C  0.95575299  0.61512149  0.28601585     0.22400
C755        C  0.94615154  0.60761233  0.26093943    -0.39600
C756        C  0.92655853  0.58781572  0.26096321     0.21200
N757        N  0.89912263  0.55747234  0.27876893    -0.32900
C758        C  0.89835766  0.55569450  0.25187597    -0.10500
C759        C  0.91503946  0.57438865  0.24008782    -0.29300
N760        N  0.97535298  0.63248157  0.29122381    -0.45900
C761        C  0.97907443  0.63145148  0.31788879    -0.05200
C762        C  0.96158130  0.61358820  0.32983147    -0.22500
H763        H  0.91965220  0.57486110  0.32746625     0.19300
H764        H  0.95402386  0.61589747  0.24270708     0.18100
H765        H  0.91888880  0.57713817  0.21909407     0.14400
H766        H  0.96021886  0.60850954  0.35070986     0.14200
H767        H  0.88937155  0.54527902  0.29243887     0.32400
H768        H  0.98614230  0.64362965  0.27744923     0.35100
C769        C  0.91637789  0.41677458  0.28014242     0.20700
C770        C  0.92483582  0.40777066  0.30515026    -0.39100
C771        C  0.94468933  0.38825934  0.30490479     0.19700
C772        C  0.95497844  0.37807595  0.28151718     0.22400
C773        C  0.94676537  0.38735334  0.25646505    -0.39600
C774        C  0.92723825  0.40726441  0.25672691     0.21200
N775        N  0.89883369  0.43625587  0.27516646    -0.32900
C776        C  0.89893934  0.43961497  0.24845576    -0.10500
C777        C  0.91634196  0.42186562  0.23619703    -0.29300
N778        N  0.97443041  0.36050501  0.28671569    -0.45900
C779        C  0.97692544  0.36003457  0.31355479    -0.05200
C780        C  0.95866538  0.37698966  0.32559714    -0.22500
H781        H  0.91711495  0.41596776  0.32346265     0.19300
H782        H  0.95551887  0.38019680  0.23818091     0.18100
H783        H  0.92085080  0.42030929  0.21521478     0.14400
H784        H  0.95653212  0.38116058  0.34659680     0.14200
H785        H  0.88833644  0.44740006  0.28913242     0.32400
H786        H  0.98623471  0.35056820  0.27288255     0.35100
C787        C  0.80712964  0.40814826  0.14470711     0.20700
C788        C  0.80899711  0.38757254  0.12600610    -0.39100
C789        C  0.78481762  0.37859543  0.11549659     0.19700
C790        C  0.76066543  0.38942310  0.12295810     0.22400
C791        C  0.75874382  0.40937305  0.14228977    -0.39600
C792        C  0.78289171  0.41823884  0.15290183     0.21200
N793        N  0.82719650  0.42210345  0.15539641    -0.32900
C794        C  0.81560058  0.44096794  0.17065866    -0.10500
C795        C  0.78803688  0.43894201  0.16999898    -0.29300
N796        N  0.74090230  0.37954856  0.10801883    -0.45900
C797        C  0.75250895  0.36211890  0.09114804    -0.05200
C798        C  0.77982722  0.36069141  0.09540527    -0.22500
H799        H  0.82792207  0.37999472  0.11921463     0.19300
H800        H  0.73993258  0.41821136  0.14775024     0.18100
H801        H  0.77374362  0.45193708  0.17941412     0.14400
H802        H  0.79421665  0.34922719  0.08430370     0.14200
H803        H  0.84750285  0.41943546  0.15198643     0.32400
H804        H  0.72083753  0.38480290  0.10880586     0.35100
C805        C  0.64294526  0.27361775  0.12051926     0.20700
C806        C  0.62377119  0.27606140  0.14048864    -0.39100
C807        C  0.61315305  0.25214356  0.14988867     0.19700
C808        C  0.62074939  0.22767866  0.13983160     0.22400
C809        C  0.64037220  0.22519002  0.12023633    -0.39600
C810        C  0.65129928  0.24913244  0.11111526     0.21200
N811        N  0.65464702  0.29341699  0.10709009    -0.32900
C812        C  0.67079419  0.28146101  0.08928094    -0.10500
C813        C  0.66955789  0.25386297  0.09131565    -0.29300
N814        N  0.60615787  0.20814124  0.15060467    -0.45900
C815        C  0.58947745  0.22028794  0.16784335    -0.05200
C816        C  0.59339287  0.24767449  0.16819422    -0.22500
H817        H  0.61710435  0.29520475  0.14766352     0.19300
H818        H  0.64617773  0.20610590  0.11220068     0.18100
H819        H  0.67954185  0.23932818  0.07902074     0.14400
H820        H  0.58245662  0.26237472  0.17943126     0.14200
H821        H  0.65145516  0.31379563  0.10949049     0.32400
H822        H  0.60722641  0.18785518  0.14628414     0.35100
C823        C  0.44144054  0.10698744  0.81309576     0.20700
C824        C  0.42118532  0.08793213  0.81560523    -0.39100
C825        C  0.41014270  0.07883443  0.79161734     0.19700
C826        C  0.41891745  0.08780546  0.76709553     0.22400
C827        C  0.43853623  0.10736985  0.76464507    -0.39600
C828        C  0.44930936  0.11667677  0.78854832     0.21200
N829        N  0.45676240  0.11710998  0.83253957    -0.32900
C830        C  0.47418347  0.13355507  0.82018136    -0.10500
C831        C  0.46990555  0.13407975  0.79283858    -0.29300
N832        N  0.40738050  0.07416788  0.74730227    -0.45900
C833        C  0.39083281  0.05665833  0.75922754    -0.05200
C834        C  0.39168893  0.05913786  0.78684709    -0.22500
H835        H  0.41518056  0.08004866  0.83471422     0.19300
H836        H  0.44562600  0.11411681  0.74547969     0.18100
H837        H  0.48130279  0.14466901  0.77798273     0.14400
H838        H  0.38140989  0.04708829  0.80141274     0.14200
H839        H  0.45578953  0.11273909  0.85283813     0.32400
H840        H  0.41098980  0.07619964  0.72693764     0.35100
C841        C  0.62355378  0.22567188  0.92429931     0.20700
C842        C  0.64307470  0.22441789  0.94414048    -0.39100
C843        C  0.65284804  0.24891967  0.95298374     0.19700
C844        C  0.64361741  0.27293711  0.94313935     0.22400
C845        C  0.62445118  0.27419709  0.92284313    -0.39600
C846        C  0.61489720  0.24959969  0.91373003     0.21200
N847        N  0.60997953  0.20523664  0.91383416    -0.32900
C848        C  0.59278516  0.21612056  0.89618622    -0.10500
C849        C  0.59535948  0.24374527  0.89539506    -0.29300
N850        N  0.65442773  0.29335014  0.95659185    -0.45900
C851        C  0.67083489  0.28211973  0.97482893    -0.05200
C852        C  0.67061074  0.25451609  0.97298587    -0.22500
H853        H  0.64963259  0.20574269  0.95261988     0.19300
H854        H  0.61698314  0.29291365  0.91525753     0.18100
H855        H  0.58363984  0.25769321  0.88391600     0.14400
H856        H  0.68099910  0.24043872  0.98554516     0.14200
H857        H  0.61192985  0.18512884  0.91877562     0.32400
H858        H  0.65053826  0.31358470  0.95390191     0.35100
C859        C  0.45166762  0.22341150  0.93241234     0.20700
C860        C  0.43449971  0.22261792  0.95427829    -0.39100
C861        C  0.42167324  0.24657291  0.96021751     0.19700
C862        C  0.42601189  0.26967161  0.94580506     0.22400
C863        C  0.44279621  0.27034518  0.92365391    -0.39600
C864        C  0.45529870  0.24629368  0.91748031     0.21200
N865        N  0.46689838  0.20357653  0.92320768    -0.32900
C866        C  0.48003171  0.21392885  0.90213349    -0.10500
C867        C  0.47321816  0.24041907  0.89782108    -0.29300
N868        N  0.41272416  0.29013008  0.95649427    -0.45900
C869        C  0.39949437  0.27976823  0.97747900    -0.05200
C870        C  0.40438805  0.25269922  0.98040518    -0.22500
H871        H  0.43162674  0.20479214  0.96601077     0.19300
H872        H  0.44619279  0.28834181  0.91232752     0.18100
H873        H  0.48087136  0.25373544  0.88273915     0.14400
H874        H  0.39711884  0.23958715  0.99585117     0.14200
H875        H  0.46835955  0.18428536  0.93082937     0.32400
H876        H  0.41274126  0.30990102  0.95005836     0.35100
C877        C  0.95760339  0.74332066  0.41960490     0.20700
C878        C  0.94874958  0.76838034  0.42766933    -0.39100
C879        C  0.92914817  0.76829522  0.44730320     0.19700
C880        C  0.91882040  0.74505745  0.45789076     0.22400
C881        C  0.92817064  0.71993771  0.45027993    -0.39600
C882        C  0.94807761  0.72002809  0.43082192     0.21200
N883        N  0.97632543  0.73812671  0.40144975    -0.32900
C884        C  0.97913129  0.71138713  0.40152742    -0.10500
C885        C  0.96194105  0.69933685  0.41957392    -0.29300
N886        N  0.90006982  0.75051954  0.47606179    -0.45900
C887        C  0.89900382  0.77740752  0.47722086    -0.05200
C888        C  0.91686459  0.78915720  0.45973936    -0.22500
H889        H  0.95665165  0.78660414  0.41938248     0.19300
H890        H  0.92064671  0.70173366  0.45894752     0.18100
H891        H  0.96003996  0.67835549  0.42397976     0.14400
H892        H  0.92041542  0.81016057  0.45666239     0.14200
H893        H  0.98714462  0.75193184  0.39034722     0.32400
H894        H  0.88931846  0.73694516  0.48747107     0.35100
C895        C  0.78647951  0.88209485  0.44836666     0.20700
C896        C  0.76131217  0.89030557  0.43962305    -0.39100
C897        C  0.76097060  0.91252732  0.42277808     0.19700
C898        C  0.78400561  0.92524259  0.41478778     0.22400
C899        C  0.80915909  0.91735451  0.42394927    -0.39600
C900        C  0.80945198  0.89540851  0.44121978     0.21200
N901        N  0.79192851  0.86232093  0.46549212    -0.32900
C902        C  0.81846911  0.86338016  0.46979273    -0.10500
C903        C  0.83013940  0.88374490  0.45497138    -0.29300
N904        N  0.77832721  0.94572756  0.39857556    -0.45900
C905        C  0.75149171  0.94635729  0.39671962    -0.05200
C906        C  0.73991895  0.92607067  0.41162034    -0.22500
H907        H  0.74328726  0.88041000  0.44587726     0.19300
H908        H  0.82710211  0.92781927  0.41841809     0.18100
H909        H  0.85077112  0.88976947  0.45498386     0.14400
H910        H  0.71898413  0.92175894  0.41384129     0.14200
H911        H  0.77825991  0.84979323  0.47477316     0.32400
H912        H  0.79178632  0.95886932  0.38982357     0.35100
C913        C  0.91437556  0.77119349  0.62381960     0.20700
C914        C  0.93263724  0.77379142  0.64475759    -0.39100
C915        C  0.94411088  0.75005180  0.65382149     0.19700
C916        C  0.93814676  0.72568483  0.64251795     0.22400
C917        C  0.91958298  0.72304116  0.62185992    -0.39600
C918        C  0.90775881  0.74671683  0.61311699     0.21200
N919        N  0.90258521  0.79087981  0.61019161    -0.32900
C920        C  0.88819195  0.77886536  0.59087697    -0.10500
C921        C  0.89056238  0.75129821  0.59224845    -0.29300
N922        N  0.95340397  0.70647723  0.65301794    -0.45900
C923        C  0.96904084  0.71861338  0.67127950    -0.05200
C924        C  0.96362386  0.74576629  0.67262543    -0.22500
H925        H  0.93814409  0.79296609  0.65279852     0.19300
H926        H  0.91530363  0.70405694  0.61270076     0.18100
H927        H  0.88248641  0.73678058  0.57858396     0.14400
H928        H  0.97360007  0.76053736  0.68466162     0.14200
H929        H  0.90502511  0.81130336  0.61313545     0.32400
H930        H  0.95364782  0.68642521  0.64761583     0.35100
C931        C  0.13570735  0.77490393  0.62123976     0.20700
C932        C  0.11724015  0.77700905  0.64192771    -0.39100
C933        C  0.10750411  0.75289432  0.65178528     0.19700
C934        C  0.11540389  0.72858115  0.64158631     0.22400
C935        C  0.13434860  0.72645692  0.62131020    -0.39600
C936        C  0.14428046  0.75058791  0.61161260     0.21200
N937        N  0.14663844  0.79489096  0.60745550    -0.32900
C938        C  0.16257282  0.78326034  0.58922673    -0.10500
C939        C  0.16185348  0.75563959  0.59124839    -0.29300
N940        N  0.10145900  0.70876868  0.65263658    -0.45900
C941        C  0.08478421  0.72055530  0.67009366    -0.05200
C942        C  0.08814319  0.74802583  0.67043956    -0.22500
H943        H  0.11036368  0.79602944  0.64923377     0.19300
H944        H  0.14030155  0.70746791  0.61316146     0.18100
H945        H  0.17201360  0.74128161  0.57889338     0.14400
H946        H  0.07693028  0.76250550  0.68169527     0.14200
H947        H  0.14337472  0.81522152  0.61016500     0.32400
H948        H  0.10272653  0.68852817  0.64812873     0.35100
C949        C  0.11692019  0.60883062  0.75932867     0.20700
C950        C  0.13513837  0.58782705  0.75727999    -0.39100
C951        C  0.14689559  0.57956312  0.78119730     0.19700
C952        C  0.14059604  0.59101406  0.80540316     0.22400
C953        C  0.12276697  0.61241573  0.80738114    -0.39600
C954        C  0.11130701  0.62096841  0.78336697     0.21200
N955        N  0.10195260  0.61918545  0.73976840    -0.32900
C956        C  0.08688547  0.63826619  0.75130122    -0.10500
C957        C  0.09232608  0.64017674  0.77845775    -0.29300
N958        N  0.15286175  0.57813491  0.82540740    -0.45900
C959        C  0.16741477  0.55869414  0.81377449    -0.05200
C960        C  0.16439123  0.55908227  0.78622219    -0.22500
H961        H  0.13936569  0.57819961  0.73852163     0.19300
H962        H  0.11768687  0.62130468  0.82628963     0.18100
H963        H  0.08279410  0.65299862  0.79283320     0.14400
H964        H  0.17284312  0.54540346  0.77195788     0.14200
H965        H  0.10162406  0.61327368  0.71984800     0.32400
H966        H  0.15119254  0.58207566  0.84573327     0.35100
C967        C  0.80032131  0.89195570  0.61204597     0.20700
C968        C  0.80138510  0.91145253  0.63186447    -0.39100
C969        C  0.77679143  0.92133523  0.64019254     0.19700
C970        C  0.75299692  0.91278341  0.62930681     0.22400
C971        C  0.75192489  0.89291262  0.60984673    -0.39600
C972        C  0.77649912  0.88272514  0.60180049     0.21200
N973        N  0.82091072  0.88036988  0.59981472    -0.32900
C974        C  0.81006656  0.86341655  0.58196791    -0.10500
C975        C  0.78245247  0.86411070  0.58271977    -0.29300
N976        N  0.73253224  0.92650020  0.63944138    -0.45900
C977        C  0.74342296  0.94355639  0.65715334    -0.05200
C978        C  0.77092010  0.94083917  0.65833757    -0.22500
H979        H  0.81998332  0.91873689  0.63984104     0.19300
H980        H  0.73337709  0.88623838  0.60125392     0.18100
H981        H  0.76868093  0.85329609  0.57022989     0.14400
H982        H  0.78477240  0.95226238  0.67018626     0.14200
H983        H  0.84108763  0.88397803  0.60316165     0.32400
H984        H  0.71245877  0.92452651  0.63451267     0.35100
C985        C  0.61991269  0.10795507  0.79978773     0.20700
C986        C  0.64046483  0.08921846  0.79982811    -0.39100
C987        C  0.64805401  0.07978066  0.77481063     0.19700
C988        C  0.63581035  0.08800232  0.75152107     0.22400
C989        C  0.61561609  0.10720323  0.75142400    -0.39600
C990        C  0.60830953  0.11699138  0.77646491     0.21200
N991        N  0.60793498  0.11858163  0.82107310    -0.32900
C992        C  0.58883742  0.13476546  0.81122754    -0.10500
C993        C  0.58861066  0.13459476  0.78350275    -0.29300
N994        N  0.64514050  0.07429468  0.73062621    -0.45900
C995        C  0.66361664  0.05753748  0.74077966    -0.05200
C996        C  0.66623409  0.06057861  0.76816557    -0.22500
H997        H  0.64938335  0.08197181  0.81804703     0.19300
H998        H  0.60583578  0.11350729  0.73329838     0.18100
H999        H  0.57498747  0.14488496  0.77037946     0.14400
H1000       H  0.67877631  0.04928416  0.78154456     0.14200
H1001       H  0.61215769  0.11472508  0.84106268     0.32400
H1002       H  0.63898885  0.07584450  0.71082925     0.35100
C1003       C  0.77711838  0.07696841  0.64079610     0.20700
C1004       C  0.80286505  0.08586901  0.63539430    -0.39100
C1005       C  0.80479595  0.10575752  0.61607014     0.19700
C1006       C  0.78272128  0.11620824  0.60334001     0.22400
C1007       C  0.75697338  0.10684956  0.60830796    -0.39600
C1008       C  0.75506361  0.08671720  0.62748609     0.21200
N1009       N  0.77011289  0.05820405  0.65831265    -0.32900
C1010       C  0.74348609  0.05567363  0.65589087    -0.10500
C1011       C  0.73328276  0.07299860  0.63677888    -0.29300
N1012       N  0.78997312  0.13463000  0.58547905    -0.45900
C1013       C  0.81682662  0.13534458  0.58647677    -0.05200
C1014       C  0.82684220  0.11770715  0.60532419    -0.22500
H1015       H  0.82012818  0.07771661  0.64532773     0.19300
H1016       H  0.73978256  0.11450417  0.59786584     0.18100
H1017       H  0.71279916  0.07528823  0.63064339     0.14400
H1018       H  0.84744871  0.11361476  0.60991385     0.14200
H1019       H  0.78272701  0.04740647  0.67079637     0.32400
H1020       H  0.77758129  0.14501780  0.57243960     0.35100
C1021       C  0.64714576  0.92400006  0.77645123     0.20700
C1022       C  0.63960923  0.91745527  0.80248464    -0.39100
C1023       C  0.62043877  0.89741266  0.80476693     0.19700
C1024       C  0.61011782  0.88444054  0.78279203     0.22400
C1025       C  0.61743180  0.89119216  0.75673683    -0.39600
C1026       C  0.63610369  0.91170928  0.75442952     0.21200
N1027       N  0.66386113  0.94336247  0.76899334    -0.32900
C1028       C  0.66296404  0.94383967  0.74208843    -0.10500
C1029       C  0.64590898  0.92439326  0.73219128    -0.29300
N1030       N  0.59170189  0.86666206  0.79019375    -0.45900
C1031       C  0.58986330  0.86874039  0.81697893    -0.05200
C1032       C  0.60748124  0.88768990  0.82686285    -0.22500
H1033       H  0.64750064  0.92777148  0.81963466     0.19300
H1034       H  0.60862185  0.88173051  0.73953898     0.18100
H1035       H  0.64100852  0.92043213  0.71160911     0.14400
H1036       H  0.61009549  0.89382545  0.84732264     0.14200
H1037       H  0.67435639  0.95623176  0.78142779     0.32400
H1038       H  0.58033063  0.85459963  0.77772041     0.35100
C1039       C  0.44372769  0.89572376  0.81576257     0.20700
C1040       C  0.42542084  0.91666898  0.81841979    -0.39100
C1041       C  0.41155063  0.92371584  0.79519029     0.19700
C1042       C  0.41602157  0.91106000  0.77117523     0.22400
C1043       C  0.43396961  0.88990158  0.76864145    -0.39600
C1044       C  0.44753000  0.88264169  0.79187391     0.21200
N1045       N  0.46044789  0.88630425  0.83436938    -0.32900
C1046       C  0.47483021  0.86698764  0.82229500    -0.10500
C1047       C  0.46717165  0.86393898  0.79582177    -0.29300
N1048       N  0.40228718  0.92284115  0.75157231    -0.45900
C1049       C  0.38860950  0.94291278  0.76307995    -0.05200
C1050       C  0.39365619  0.94404793  0.79037764    -0.22500
H1051       H  0.42271115  0.92714341  0.83700589     0.19300
H1052       H  0.43764425  0.88028728  0.74976160     0.18100
H1053       H  0.47555934  0.85060377  0.78119686     0.14400
H1054       H  0.38661676  0.95877144  0.80437372     0.14200
H1055       H  0.46228917  0.89291206  0.85397182     0.32400
H1056       H  0.40281303  0.91806180  0.73136694     0.35100
C1057       C  0.45028558  0.77397537  0.93086451     0.20700
C1058       C  0.43247831  0.77470237  0.95220331    -0.39100
C1059       C  0.42091238  0.75033704  0.95900716     0.19700
C1060       C  0.42684062  0.72693763  0.94578028     0.22400
C1061       C  0.44417566  0.72632736  0.92399101    -0.39600
C1062       C  0.45560666  0.75078061  0.91704200     0.21200
N1063       N  0.46509169  0.79412752  0.92163757    -0.32900
C1064       C  0.47975193  0.78376009  0.90164600    -0.10500
C1065       C  0.47425590  0.75683939  0.89798901    -0.29300
N1066       N  0.41487464  0.70615694  0.95752932    -0.45900
C1067       C  0.40099700  0.71660065  0.97804980    -0.05200
C1068       C  0.40403346  0.74404970  0.97949443    -0.22500
H1069       H  0.42849841  0.79276058  0.96317824     0.19300
H1070       H  0.44900383  0.70806315  0.91372291     0.18100
H1071       H  0.48339424  0.74335368  0.88396583     0.14400
H1072       H  0.39592512  0.75738236  0.99428120     0.14200
H1073       H  0.46546159  0.81364534  0.92872037     0.32400
H1074       H  0.41624985  0.68614864  0.95214317     0.35100
C1075       C  0.61471831  0.75336592  0.91800140     0.20700
C1076       C  0.62172701  0.72841424  0.92832648    -0.39100
C1077       C  0.64331122  0.72822229  0.94597347     0.19700
C1078       C  0.65719065  0.75105815  0.95252485     0.22400
C1079       C  0.64992161  0.77610372  0.94248751    -0.39600
C1080       C  0.62800562  0.77636454  0.92519709     0.21200
N1081       N  0.59418112  0.75896989  0.90184777    -0.32900
C1082       C  0.59405877  0.78576711  0.89919943    -0.10500
C1083       C  0.61477945  0.79735415  0.91349821    -0.29300
N1084       N  0.67600375  0.74572830  0.97080612    -0.45900
C1085       C  0.67358005  0.71945142  0.97638661    -0.05200
C1086       C  0.65357044  0.70784266  0.96112561    -0.22500
H1087       H  0.61066958  0.71058089  0.92360941     0.19300
H1088       H  0.66004147  0.79414731  0.94836307     0.18100
H1089       H  0.61922513  0.81831344  0.91544366     0.14400
H1090       H  0.64668737  0.68747273  0.96189023     0.14200
H1091       H  0.58040223  0.74555751  0.89406694     0.32400
H1092       H  0.68862576  0.75936634  0.98001287     0.35100
C1093       C  0.78493353  0.58319525  0.15687019     0.20700
C1094       C  0.76012144  0.59363160  0.14944279    -0.39100
C1095       C  0.76062266  0.61326916  0.12953843     0.19700
C1096       C  0.78408237  0.62227836  0.11835967     0.22400
C1097       C  0.80880804  0.61169869  0.12561613    -0.39600
C1098       C  0.80825397  0.59169597  0.14504698     0.21200
N1099       N  0.78974325  0.56305671  0.17389882    -0.32900
C1100       C  0.81623361  0.55843264  0.17238616    -0.10500
C1101       C  0.82840600  0.57593818  0.15469012    -0.29300
N1102       N  0.77917892  0.63974440  0.09869858    -0.45900
C1103       C  0.75240003  0.64132921  0.09683593    -0.05200
C1104       C  0.74012131  0.62528020  0.11585128    -0.22500
H1105       H  0.74172444  0.58624006  0.15773672     0.19300
H1106       H  0.82704910  0.61782325  0.11604518     0.18100
H1107       H  0.84914270  0.57655108  0.14910178     0.14400
H1108       H  0.71905669  0.62192542  0.11845083     0.14200
H1109       H  0.77578357  0.55236959  0.18490337     0.32400
H1110       H  0.79310640  0.64866064  0.08617386     0.35100
C1111       C  0.62233010  0.77706860  0.14221033     0.20700
C1112       C  0.64047721  0.77938116  0.12125181    -0.39100
C1113       C  0.65289005  0.75572696  0.11354788     0.19700
C1114       C  0.64729936  0.73155883  0.12555179     0.22400
C1115       C  0.62955768  0.72933559  0.14688611    -0.39600
C1116       C  0.61740416  0.75306224  0.15480948     0.21200
N1117       N  0.60658366  0.79621003  0.15191017    -0.32900
C1118       C  0.59171560  0.78432202  0.17092048    -0.10500
C1119       C  0.59807201  0.75750704  0.17358011    -0.29300
N1120       N  0.65964087  0.71168796  0.11283283    -0.45900
C1121       C  0.67336701  0.72337314  0.09285291    -0.05200
C1122       C  0.66999798  0.75082566  0.09281875    -0.22500
H1123       H  0.64400615  0.79804756  0.11111910     0.19300
H1124       H  0.62488357  0.71041221  0.15602837     0.18100
H1125       H  0.58887253  0.74301036  0.18655484     0.14400
H1126       H  0.67764873  0.76499764  0.07854163     0.14200
H1127       H  0.60559259  0.81599464  0.14559727     0.32400
H1128       H  0.65826230  0.69137041  0.11700123     0.35100
C1129       C  0.92453329  0.58960244  0.80981377     0.20700
C1130       C  0.94428623  0.60909167  0.81104985    -0.39100
C1131       C  0.95278119  0.61892195  0.78648221     0.19700
C1132       C  0.94272895  0.60969044  0.76253634     0.22400
C1133       C  0.92261558  0.59059526  0.76132448    -0.39600
C1134       C  0.91380776  0.58110085  0.78588982     0.21200
N1135       N  0.91432305  0.57582137  0.83018465    -0.32900
C1136       C  0.89684247  0.55875129  0.81900801    -0.10500
C1137       C  0.89568076  0.56160818  0.79154042    -0.29300
N1138       N  0.95550560  0.62078330  0.74200076    -0.45900
C1139       C  0.97343260  0.63744251  0.75306543    -0.05200
C1140       C  0.97226399  0.63704637  0.78068446    -0.22500
H1141       H  0.95284754  0.61563308  0.82968166     0.19300
H1142       H  0.91487134  0.58320522  0.74265339     0.18100
H1143       H  0.88417021  0.55000634  0.77755002     0.14400
H1144       H  0.98477133  0.64770419  0.79456820     0.14200
H1145       H  0.91929747  0.57751000  0.85029551     0.32400
H1146       H  0.95245368  0.61706063  0.72176716     0.35100
C1147       C  0.80801026  0.58812474  0.93009541     0.20700
C1148       C  0.81017593  0.60731666  0.95012384    -0.39100
C1149       C  0.78612308  0.61734503  0.95972762     0.19700
C1150       C  0.76175424  0.60852386  0.95047586     0.22400
C1151       C  0.75958572  0.58964817  0.93008703    -0.39600
C1152       C  0.78368853  0.57997224  0.92012017     0.21200
N1153       N  0.82786810  0.57457224  0.91869911    -0.32900
C1154       C  0.81613466  0.55793247  0.90112760    -0.10500
C1155       C  0.78862579  0.56086167  0.90118459    -0.29300
N1156       N  0.74189469  0.62002984  0.96399817    -0.45900
C1157       C  0.75377607  0.63657793  0.98159378    -0.05200
C1158       C  0.78130668  0.63561750  0.97944549    -0.22500
H1159       H  0.82917600  0.61364263  0.95795981     0.19300
H1160       H  0.74057035  0.58268548  0.92285158     0.18100
H1161       H  0.77419658  0.54960997  0.88987975     0.14400
H1162       H  0.79579654  0.64617881  0.99132518     0.14200
H1163       H  0.84812776  0.57617727  0.92295282     0.32400
H1164       H  0.72154223  0.61679970  0.96149298     0.35100
C1165       C  0.76149239  0.39002163  0.94386495     0.20700
C1166       C  0.75978648  0.40910186  0.92364678    -0.39100
C1167       C  0.78402821  0.41973251  0.91525720     0.19700
C1168       C  0.80806862  0.41209181  0.92633193     0.22400
C1169       C  0.80983245  0.39248012  0.94598932    -0.39600
C1170       C  0.78562695  0.38169249  0.95422227     0.21200
N1171       N  0.74129545  0.37884286  0.95710678    -0.32900
C1172       C  0.75276655  0.36313594  0.97571498    -0.10500
C1173       C  0.78032154  0.36404494  0.97435322    -0.29300
N1174       N  0.82795439  0.42691352  0.91672970    -0.45900
C1175       C  0.81646106  0.44379452  0.89922077    -0.05200
C1176       C  0.78917281  0.43982724  0.89750107    -0.22500
H1177       H  0.74095035  0.41593020  0.91580469     0.19300
H1178       H  0.82855356  0.38681490  0.95495457     0.18100
H1179       H  0.79446194  0.35439387  0.98741291     0.14400
H1180       H  0.77494777  0.45096899  0.88578810     0.14200
H1181       H  0.72100796  0.38219931  0.95416147     0.32400
H1182       H  0.84799819  0.42591984  0.92204460     0.35100
C1183       C  0.92697327  0.41404955  0.81006399     0.20700
C1184       C  0.94707858  0.39483140  0.81194066    -0.39100
C1185       C  0.95459501  0.38296582  0.78790307     0.19700
C1186       C  0.94330317  0.39017076  0.76381502     0.22400
C1187       C  0.92293743  0.40909817  0.76199031    -0.39600
C1188       C  0.91507411  0.42057611  0.78608311     0.21200
N1189       N  0.91700846  0.42886863  0.82983818    -0.32900
C1190       C  0.89839064  0.44464161  0.81841980    -0.10500
C1191       C  0.89646470  0.43997063  0.79117665    -0.29300
N1192       N  0.95551198  0.37779867  0.74364519    -0.45900
C1193       C  0.97449356  0.36241602  0.75496514    -0.05200
C1194       C  0.97435351  0.36477678  0.78257092    -0.22500
H1195       H  0.95652782  0.38987835  0.83064953     0.19300
H1196       H  0.91424208  0.41484909  0.74314192     0.18100
H1197       H  0.88379316  0.45000376  0.77694450     0.14400
H1198       H  0.98799762  0.35581069  0.79661056     0.14200
H1199       H  0.92262974  0.42841245  0.84984425     0.32400
H1200       H  0.95175261  0.38029520  0.72334893     0.35100
loop_ 
_geom_bond_atom_site_label_1 
_geom_bond_atom_site_label_2 
_geom_bond_distance 
_geom_bond_site_symmetry_2 
_ccdc_geom_bond_type 
O1           Cu9   2.011       .  S
O1           C11   1.278       .  A
O2           Cu9   2.007       .  S
O2           C12   1.277       .  A
O3           Cu9   1.984       .  S
O3           C13   1.275       .  A
O4           Cu9   1.986       .  S
O4           C14   1.274       .  A
O5          Cu10   1.995       .  S
O5           C14   1.276       .  A
O6          Cu10   1.993       .  S
O6           C13   1.275       .  A
O7          Cu10   1.997       .  S
O7           C12   1.276       .  A
O8          Cu10   2.000       .  S
O8           C11   1.276       .  A
Cu9         Cu10   2.381       .  S
C11        C1190   1.466       .  S
C12        C1154   1.462       .  S
C13        C1136   1.452       .  S
C14        C1175   1.454       .  S
O15         Cu23   2.008       .  S
O15          C25   1.277       .  A
O16         Cu23   2.006       .  S
O16          C26   1.277       .  A
O17         Cu23   2.021       .  S
O17          C27   1.278   1_554  A
O18         Cu23   2.019       .  S
O18          C28   1.279       .  A
O19         Cu24   2.005       .  S
O19          C28   1.277       .  A
O20         Cu24   2.008       .  S
O20          C27   1.278   1_554  A
O21         Cu24   2.000       .  S
O21          C26   1.276       .  A
O22         Cu24   1.996       .  S
O22          C25   1.275       .  A
Cu23        Cu24   2.377       .  S
C25        C1121   1.460       .  S
C26        C1157   1.462   1_554  S
C27        C1085   1.473       .  S
C28        C1103   1.470       .  S
O29         Cu37   2.006       .  S
O29          C39   1.277       .  A
O30         Cu37   2.005       .  S
O30          C40   1.276       .  A
O31         Cu37   2.010       .  S
O31          C41   1.278       .  A
O32         Cu37   2.010       .  S
O32          C42   1.278       .  A
O33         Cu38   1.998       .  S
O33          C42   1.276       .  A
O34         Cu38   2.002       .  S
O34          C41   1.276       .  A
O35         Cu38   2.017       .  S
O35          C40   1.278       .  A
O36         Cu38   2.019       .  S
O36          C39   1.279       .  A
Cu37        Cu38   2.377       .  S
C39        C1046   1.472       .  S
C40        C1082   1.467       .  S
C41        C1031   1.466       .  S
C42        C1064   1.465       .  S
O43         Cu51   1.991       .  S
O43          C53   1.276       .  A
O44         Cu51   1.997   1_565  S
O44          C54   1.276       .  A
O45         Cu51   1.991   1_565  S
O45          C55   1.275       .  A
O46         Cu51   1.991       .  S
O46          C56   1.275       .  A
O47         Cu52   2.011       .  S
O47          C56   1.278       .  A
O48         Cu52   2.009   1_565  S
O48          C55   1.278       .  A
O49         Cu52   2.011   1_565  S
O49          C54   1.278       .  A
O50         Cu52   2.006       .  S
O50          C53   1.277       .  A
Cu51        Cu52   2.379       .  S
C53        C1010   1.460       .  S
C54        C1028   1.464       .  S
C55         C977   1.461       .  S
C56         C995   1.462       .  S
O57         Cu65   1.995       .  S
O57          C67   1.276       .  A
O58         Cu65   1.991       .  S
O58          C68   1.275   1_455  A
O59         Cu65   2.002   1_655  S
O59          C69   1.276       .  A
O60         Cu65   2.006       .  S
O60          C70   1.277       .  A
O61         Cu66   2.019       .  S
O61          C70   1.279       .  A
O62         Cu66   2.019   1_655  S
O62          C69   1.279       .  A
O63         Cu66   1.991       .  S
O63          C68   1.275   1_455  A
O64         Cu66   1.999       .  S
O64          C67   1.276       .  A
Cu65        Cu66   2.379       .  S
C67         C941   1.459       .  S
C68        C1139   1.452       .  S
C69         C923   1.469       .  S
C70         C956   1.472       .  S
O71         Cu79   2.015       .  S
O71          C81   1.278       .  A
O72         Cu79   2.013       .  S
O72          C82   1.278       .  A
O73         Cu79   2.006       .  S
O73          C83   1.278       .  A
O74         Cu79   2.008       .  S
O74          C84   1.277       .  A
O75         Cu80   1.990       .  S
O75          C84   1.275       .  A
O76         Cu80   1.989       .  S
O76          C83   1.275       .  A
O77         Cu80   2.001       .  S
O77          C82   1.276       .  A
O78         Cu80   2.008       .  S
O78          C81   1.277       .  A
Cu79        Cu80   2.379       .  S
C81         C902   1.470       .  S
C82         C920   1.464       .  S
C83         C974   1.459       .  S
C84         C887   1.459       .  S
O85         Cu93   2.013       .  S
O85          C95   1.278       .  A
O86         Cu93   2.007       .  S
O86          C96   1.278       .  A
O87         Cu93   1.989       .  S
O87          C97   1.275       .  A
O88         Cu93   1.998       .  S
O88          C98   1.275       .  A
O89         Cu94   2.012       .  S
O89          C98   1.278       .  A
O90         Cu94   2.006       .  S
O90          C97   1.277       .  A
O91         Cu94   2.015       .  S
O91          C96   1.277       .  A
O92         Cu94   2.011       .  S
O92          C95   1.278       .  A
Cu93        Cu94   2.377       .  S
C95         C848   1.470       .  S
C96         C830   1.468       .  S
C97         C866   1.461       .  S
C98         C992   1.463       .  S
O99        Cu107   2.007       .  S
O99         C109   1.277       .  A
O100       Cu107   2.005       .  S
O100        C110   1.277   1_554  A
O101       Cu107   1.994       .  S
O101        C111   1.275   1_554  A
O102       Cu107   1.998       .  S
O102        C112   1.276       .  A
O103       Cu108   1.999       .  S
O103        C112   1.277       .  A
O104       Cu108   1.997       .  S
O104        C111   1.276   1_554  A
O105       Cu108   2.011       .  S
O105        C110   1.277   1_554  A
O106       Cu108   2.010       .  S
O106        C109   1.278       .  A
Cu107      Cu108   2.379       .  S
C109        C797   1.466       .  S
C110        C851   1.467       .  S
C111       C1172   1.455       .  S
C112        C812   1.459       .  S
O113       Cu121   2.010       .  S
O113        C123   1.277       .  A
O114       Cu121   2.003       .  S
O114        C124   1.276       .  A
O115       Cu121   2.016       .  S
O115        C125   1.279       .  A
O116       Cu121   2.024       .  S
O116        C126   1.279       .  A
O117       Cu122   2.003       .  S
O117        C126   1.277       .  A
O118       Cu122   2.002       .  S
O118        C125   1.276       .  A
O119       Cu122   2.010       .  S
O119        C124   1.278       .  A
O120       Cu122   2.013       .  S
O120        C123   1.279       .  A
Cu121      Cu122   2.377       .  S
C123        C758   1.469       .  S
C124        C794   1.464       .  S
C125        C776   1.467       .  S
C126       C1100   1.472       .  S
O127       Cu135   2.012       .  S
O127        C137   1.278   1_455  A
O128       Cu135   2.006       .  S
O128        C138   1.277       .  A
O129       Cu135   2.001       .  S
O129        C139   1.276       .  A
O130       Cu135   1.998       .  S
O130        C140   1.276   1_455  A
O131       Cu136   1.999       .  S
O131        C140   1.276   1_455  A
O132       Cu136   1.996       .  S
O132        C139   1.276       .  A
O133       Cu136   2.003       .  S
O133        C138   1.276       .  A
O134       Cu136   2.005       .  S
O134        C137   1.277   1_455  A
Cu135      Cu136   2.379       .  S
C137        C761   1.467       .  S
C138        C725   1.463       .  S
C139        C740   1.460       .  S
C140        C884   1.459       .  S
O141       Cu149   1.996       .  S
O141        C151   1.276       .  A
O142       Cu149   1.999       .  S
O142        C152   1.276       .  A
O143       Cu149   2.010       .  S
O143        C153   1.278       .  A
O144       Cu149   2.015       .  S
O144        C154   1.278       .  A
O145       Cu150   2.004       .  S
O145        C154   1.277       .  A
O146       Cu150   2.000       .  S
O146        C153   1.276       .  A
O147       Cu150   2.005       .  S
O147        C152   1.277       .  A
O148       Cu150   2.008       .  S
O148        C151   1.277       .  A
Cu149      Cu150   2.378       .  S
C151        C938   1.461       .  S
C152        C704   1.463       .  S
C153        C722   1.464       .  S
C154        C686   1.469       .  S
O155       Cu163   2.000   1_545  S
O155        C165   1.275       .  A
O156       Cu163   1.999       .  S
O156        C166   1.276       .  A
O157       Cu163   2.013       .  S
O157        C167   1.278       .  A
O158       Cu163   2.009   1_545  S
O158        C168   1.278       .  A
O159       Cu164   2.006       .  S
O159        C168   1.276       .  A
O160       Cu164   2.013   1_565  S
O160        C167   1.277       .  A
O161       Cu164   2.025   1_565  S
O161        C166   1.279       .  A
O162       Cu164   2.017       .  S
O162        C165   1.279       .  A
Cu163      Cu164   2.377   1_565  S
C165        C668   1.467       .  S
C166       C1049   1.469       .  S
C167        C689   1.470       .  S
C168        C833   1.465       .  S
O169       Cu177   2.008       .  S
O169        C179   1.276       .  A
O170       Cu177   2.008   1_565  S
O170        C180   1.277       .  A
O171       Cu177   2.009   1_565  S
O171        C181   1.278       .  A
O172       Cu177   2.010       .  S
O172        C182   1.277       .  A
O173       Cu178   2.001       .  S
O173        C182   1.277       .  A
O174       Cu178   2.003   1_565  S
O174        C181   1.276       .  A
O175       Cu178   2.010   1_565  S
O175        C180   1.278       .  A
O176       Cu178   2.006       .  S
O176        C179   1.277       .  A
Cu177      Cu178   2.378       .  S
C179        C653   1.464       .  S
C180        C905   1.466       .  S
C181        C635   1.465       .  S
C182        C614   1.465       .  S
O183       Cu191   2.011       .  S
O183        C193   1.278       .  A
O184       Cu191   2.013       .  S
O184        C194   1.278       .  A
O185       Cu191   2.002       .  S
O185        C195   1.276       .  A
O186       Cu191   1.996       .  S
O186        C196   1.276       .  A
O187       Cu192   2.003       .  S
O187        C196   1.277       .  A
O188       Cu192   2.007       .  S
O188        C195   1.277       .  A
O189       Cu192   2.015       .  S
O189        C194   1.277       .  A
O190       Cu192   2.004       .  S
O190        C193   1.276       .  A
Cu191      Cu192   2.378       .  S
C193        C632   1.465       .  S
C194        C578   1.471       .  S
C195        C596   1.464       .  S
C196       C1118   1.461       .  S
O197       Cu205   2.018       .  S
O197        C207   1.279       .  A
O198       Cu205   2.024       .  S
O198        C208   1.279       .  A
O199       Cu205   2.005       .  S
O199        C209   1.277       .  A
O200       Cu205   2.009       .  S
O200        C210   1.277       .  A
O201       Cu206   2.002       .  S
O201        C210   1.276       .  A
O202       Cu206   2.003       .  S
O202        C209   1.277       .  A
O203       Cu206   2.011       .  S
O203        C208   1.278       .  A
O204       Cu206   2.011       .  S
O204        C207   1.277       .  A
Cu205      Cu206   2.377       .  S
C207        C959   1.470       .  S
C208        C563   1.474       .  S
C209        C524   1.462       .  S
C210        C542   1.464       .  S
O211       Cu219   1.993       .  S
O211        C221   1.275   1_554  A
O212       Cu219   1.990       .  S
O212        C222   1.275       .  A
O213       Cu219   2.014       .  S
O213        C223   1.278       .  A
O214       Cu219   2.014       .  S
O214        C224   1.277   1_554  A
O215       Cu220   2.003       .  S
O215        C224   1.277   1_554  A
O216       Cu220   2.009       .  S
O216        C223   1.277       .  A
O217       Cu220   2.001       .  S
O217        C222   1.276       .  A
O218       Cu220   2.009       .  S
O218        C221   1.277   1_554  A
Cu219      Cu220   2.378       .  S
C221       C1067   1.460       .  S
C222        C509   1.455       .  S
C223        C581   1.471       .  S
C224        C545   1.468       .  S
O225       Cu233   2.001       .  S
O225        C235   1.277       .  A
O226       Cu233   2.004       .  S
O226        C236   1.277       .  A
O227       Cu233   1.989       .  S
O227        C237   1.275       .  A
O228       Cu233   1.990       .  S
O228        C238   1.275       .  A
O229       Cu234   2.002       .  S
O229        C238   1.277       .  A
O230       Cu234   2.000       .  S
O230        C237   1.277       .  A
O231       Cu234   2.002       .  S
O231        C236   1.276       .  A
O232       Cu234   2.001       .  S
O232        C235   1.276       .  A
Cu233      Cu234   2.380       .  S
C235        C470   1.461       .  S
C236        C743   1.463       .  S
C237        C506   1.458       .  S
C238        C488   1.458       .  S
O239       Cu247   1.998       .  S
O239        C249   1.276   1_554  A
O240       Cu247   1.997       .  S
O240        C250   1.276       .  A
O241       Cu247   1.999       .  S
O241        C251   1.276       .  A
O242       Cu247   2.000       .  S
O242        C252   1.276   1_554  A
O243       Cu248   2.018       .  S
O243        C252   1.279   1_554  A
O244       Cu248   2.010       .  S
O244        C251   1.278       .  A
O245       Cu248   1.995       .  S
O245        C250   1.275       .  A
O246       Cu248   2.000       .  S
O246        C249   1.276   1_554  A
Cu247      Cu248   2.379       .  S
C249        C869   1.457       .  S
C250        C473   1.456       .  S
C251        C452   1.465       .  S
C252        C560   1.468       .  S
O253       Cu261   2.001       .  S
O253        C263   1.276       .  A
O254       Cu261   2.004       .  S
O254        C264   1.277       .  A
O255       Cu261   2.006       .  S
O255        C265   1.277       .  A
O256       Cu261   2.004       .  S
O256        C266   1.277       .  A
O257       Cu262   2.003       .  S
O257        C266   1.277       .  A
O258       Cu262   2.007       .  S
O258        C265   1.276       .  A
O259       Cu262   2.012       .  S
O259        C264   1.277       .  A
O260       Cu262   2.004       .  S
O260        C263   1.277       .  A
Cu261      Cu262   2.378       .  S
C263        C815   1.462       .  S
C264        C437   1.467       .  S
C265        C455   1.463       .  S
C266        C650   1.464       .  S
O267       Cu275   2.013       .  S
O267        C277   1.278   1_455  A
O268       Cu275   2.012       .  S
O268        C278   1.278       .  A
O269       Cu275   1.998       .  S
O269        C279   1.276       .  A
O270       Cu275   2.002       .  S
O270        C280   1.276   1_455  A
O271       Cu276   1.993       .  S
O271        C280   1.276   1_455  A
O272       Cu276   1.999       .  S
O272        C279   1.276       .  A
O273       Cu276   1.998       .  S
O273        C278   1.276       .  A
O274       Cu276   2.000       .  S
O274        C277   1.276   1_455  A
Cu275      Cu276   2.379       .  S
C277       C1193   1.464       .  S
C278        C419   1.467       .  S
C279        C527   1.460       .  S
C280        C401   1.461       .  S
O281       Cu289   1.996       .  S
O281        C291   1.275       .  A
O282       Cu289   1.996       .  S
O282        C292   1.276       .  A
O283       Cu289   2.005       .  S
O283        C293   1.277       .  A
O284       Cu289   2.001       .  S
O284        C294   1.277       .  A
O285       Cu290   2.006       .  S
O285        C294   1.276       .  A
O286       Cu290   2.007       .  S
O286        C293   1.277       .  A
O287       Cu290   2.001       .  S
O287        C292   1.276       .  A
O288       Cu290   1.998       .  S
O288        C291   1.276       .  A
Cu289      Cu290   2.380       .  S
C291       C1013   1.458       .  S
C292        C380   1.458       .  S
C293        C617   1.465       .  S
C294        C398   1.460       .  S
O295       Cu303   2.006       .  S
O295        C305   1.277       .  A
O296       Cu303   2.003       .  S
O296        C306   1.276       .  A
O297       Cu303   2.015       .  S
O297        C307   1.277       .  A
O298       Cu303   2.013       .  S
O298        C308   1.278       .  A
O299       Cu304   2.015       .  S
O299        C308   1.278       .  A
O300       Cu304   2.004       .  S
O300        C307   1.277       .  A
O301       Cu304   2.003       .  S
O301        C306   1.276       .  A
O302       Cu304   2.006       .  S
O302        C305   1.277       .  A
Cu303      Cu304   2.377       .  S
C305        C362   1.466       .  S
C306        C416   1.460       .  S
C307        C671   1.467       .  S
C308        C347   1.472       .  S
O309       Cu317   2.004   1_565  S
O309        C319   1.277       .  A
O310       Cu317   2.009       .  S
O310        C320   1.277       .  A
O311       Cu317   2.014       .  S
O311        C321   1.278       .  A
O312       Cu317   2.017   1_565  S
O312        C322   1.279       .  A
O313       Cu318   1.998   1_565  S
O313        C322   1.276       .  A
O314       Cu318   1.990       .  S
O314        C321   1.275       .  A
O315       Cu318   2.006       .  S
O315        C320   1.278       .  A
O316       Cu318   2.006   1_565  S
O316        C319   1.277       .  A
Cu317      Cu318   2.378       .  S
C319        C707   1.464       .  S
C320        C434   1.467       .  S
C321        C365   1.461       .  S
C322        C599   1.467       .  S
O323       Cu331   1.991       .  S
O323        C333   1.275       .  A
O324       Cu331   1.995       .  S
O324        C334   1.275       .  A
O325       Cu331   2.017       .  S
O325        C335   1.279       .  A
O326       Cu331   2.017       .  S
O326        C336   1.278   1_455  A
O327       Cu332   2.008       .  S
O327        C336   1.277   1_455  A
O328       Cu332   2.007       .  S
O328        C335   1.277       .  A
O329       Cu332   1.988       .  S
O329        C334   1.275       .  A
O330       Cu332   1.987       .  S
O330        C333   1.275       .  A
Cu331      Cu332   2.380       .  S
C333        C383   1.453   1_455  S
C334        C491   1.453       .  S
C335        C344   1.470       .  S
C336        C779   1.469       .  S
C337        C342   1.385       .  A
C337        C338   1.404       .  A
C337        N343   1.344       .  A
C338        C339   1.403       .  A
C338        H349   1.082       .  S
C339        C348   1.379       .  A
C339        C340   1.385       .  A
C340        C341   1.405       .  A
C340        N346   1.345       .  A
C341        C342   1.404       .  A
C341        H350   1.082       .  S
C342        C345   1.379       .  A
N343        C344   1.355       .  A
N343        H353   1.045       .  S
C344        C345   1.395       .  A
C345        H351   1.082       .  S
N346        C347   1.356       .  A
N346        H354   1.045       .  S
C347        C348   1.395       .  A
C348        H352   1.082       .  S
C355        C360   1.385       .  A
C355        C356   1.401       .  A
C355        N361   1.342       .  A
C356        C357   1.400       .  A
C356        H367   1.083       .  S
C357        C366   1.374       .  A
C357        C358   1.386       .  A
C358        C359   1.402       .  A
C358        N364   1.344       .  A
C359        C360   1.402       .  A
C359        H368   1.082       .  S
C360        C363   1.376       .  A
N361        C362   1.354       .  A
N361        H371   1.045       .  S
C362        C363   1.394       .  A
C363        H369   1.082       .  S
N364        C365   1.353       .  A
N364        H372   1.045       .  S
C365        C366   1.392       .  A
C366        H370   1.083       .  S
C373        C378   1.386       .  A
C373        C374   1.401       .  A
C373        N379   1.341       .  A
C374        C375   1.400       .  A
C374        H385   1.083       .  S
C375        C384   1.374       .  A
C375        C376   1.386       .  A
C376        C377   1.397       .  A
C376        N382   1.338       .  A
C377        C378   1.397       .  A
C377        H386   1.082       .  S
C378        C381   1.372       .  A
N379        C380   1.354       .  A
N379        H389   1.045       .  S
C380        C381   1.390       .  A
C381        H387   1.082       .  S
N382        C383   1.351       .  A
N382        H390   1.045       .  S
C383        C384   1.392       .  A
C384        H388   1.083       .  S
C391        C396   1.385       .  A
C391        C392   1.404       .  A
C391        N397   1.343       .  A
C392        C393   1.403       .  A
C392        H403   1.083       .  S
C393        C402   1.378       .  A
C393        C394   1.386       .  A
C394        C395   1.397       .  A
C394        N400   1.338       .  A
C395        C396   1.396       .  A
C395        H404   1.082       .  S
C396        C399   1.371       .  A
N397        C398   1.355       .  A
N397        H407   1.045       .  S
C398        C399   1.389       .  A
C399        H405   1.082       .  S
N400        C401   1.352       .  A
N400        H408   1.045       .  S
C401        C402   1.395       .  A
C402        H406   1.082       .  S
C409        C414   1.386       .  A
C409        C410   1.402       .  A
C409        N415   1.342       .  A
C410        C411   1.402       .  A
C410        H421   1.082       .  S
C411        C420   1.377       .  A
C411        C412   1.385       .  A
C412        C413   1.401       .  A
C412        N418   1.342       .  A
C413        C414   1.400       .  A
C413        H422   1.082       .  S
C414        C417   1.376       .  A
N415        C416   1.353       .  A
N415        H425   1.045       .  S
C416        C417   1.392       .  A
C417        H423   1.082       .  S
N418        C419   1.354       .  A
N418        H426   1.044       .  S
C419        C420   1.395       .  A
C420        H424   1.083       .  S
C427        C432   1.385       .  A
C427        C428   1.400       .  A
C427        N433   1.340       .  A
C428        C429   1.399       .  A
C428        H439   1.082       .  S
C429        C438   1.376       .  A
C429        C430   1.385       .  A
C430        C431   1.406       .  A
C430        N436   1.344       .  A
C431        C432   1.404       .  A
C431        H440   1.082       .  S
C432        C435   1.382       .  A
N433        C434   1.353       .  A
N433        H443   1.044       .  S
C434        C435   1.397       .  A
C435        H441   1.083       .  S
N436        C437   1.356       .  A
N436        H444   1.044       .  S
C437        C438   1.393       .  A
C438        H442   1.082       .  S
C445        C450   1.385       .  A
C445        C446   1.404       .  A
C445        N451   1.343       .  A
C446        C447   1.403       .  A
C446        H457   1.083       .  S
C447        C456   1.378       .  A
C447        C448   1.386       .  A
C448        C449   1.400       .  A
C448        N454   1.341       .  A
C449        C450   1.399       .  A
C449        H458   1.082       .  S
C450        C453   1.374       .  A
N451        C452   1.356       .  A
N451        H461   1.045       .  S
C452        C453   1.392       .  A
C453        H459   1.082       .  S
N454        C455   1.353       .  A
N454        H462   1.045       .  S
C455        C456   1.394       .  A
C456        H460   1.082       .  S
C463        C468   1.385       .  A
C463        C464   1.400       .  A
C463        N469   1.340       .  A
C464        C465   1.399       .  A
C464        H475   1.082       .  S
C465        C474   1.375       .  A
C465        C466   1.386       .  A
C466        C467   1.401       .  A
C466        N472   1.340       .  A
C467        C468   1.400       .  A
C467        H476   1.083       .  S
C468        C471   1.375       .  A
N469        C470   1.353       .  A
N469        H479   1.045       .  S
C470        C471   1.393       .  A
C471        H477   1.082       .  S
N472        C473   1.353       .  A
N472        H480   1.046       .  S
C473        C474   1.392       .  A
C474        H478   1.083       .  S
C481        C486   1.386       .  A
C481        C482   1.398       .  A
C481        N487   1.340       .  A
C482        C483   1.397       .  A
C482        H493   1.082       .  S
C483        C492   1.371       .  A
C483        C484   1.386       .  A
C484        C485   1.400       .  A
C484        N490   1.341       .  A
C485        C486   1.400       .  A
C485        H494   1.082       .  S
C486        C489   1.373       .  A
N487        C488   1.352       .  A
N487        H497   1.044       .  S
C488        C489   1.393       .  A
C489        H495   1.083       .  S
N490        C491   1.353       .  A
N490        H498   1.044       .  S
C491        C492   1.389       .  A
C492        H496   1.083       .  S
C499        C504   1.386       .  A
C499        C500   1.400       .  A
C499        N505   1.340       .  A
C500        C501   1.399       .  A
C500        H511   1.083       .  S
C501        C510   1.373       .  A
C501        C502   1.386       .  A
C502        C503   1.399       .  A
C502        N508   1.340       .  A
C503        C504   1.398       .  A
C503        H512   1.082       .  S
C504        C507   1.372       .  A
N505        C506   1.354       .  A
N505        H515   1.046       .  S
C506        C507   1.391       .  A
C507        H513   1.082       .  S
N508        C509   1.352       .  A
N508        H516   1.046       .  S
C509        C510   1.391       .  A
C510        H514   1.083       .  S
C517        C522   1.385       .  A
C517        C518   1.400       .  A
C517        N523   1.340       .  A
C518        C519   1.399       .  A
C518        H529   1.082       .  S
C519        C528   1.374       .  A
C519        C520   1.385       .  A
C520        C521   1.402       .  A
C520        N526   1.342       .  A
C521        C522   1.402       .  A
C521        H530   1.082       .  S
C522        C525   1.377       .  A
N523        C524   1.353       .  A
N523        H533   1.045       .  S
C524        C525   1.394       .  A
C525        H531   1.082       .  S
N526        C527   1.354       .  A
N526        H534   1.045       .  S
C527        C528   1.391       .  A
C528        H532   1.082       .  S
C535        C540   1.385       .  A
C535        C536   1.400       .  A
C535        N541   1.342       .  A
C536        C537   1.399       .  A
C536        H547   1.082       .  S
C537        C546   1.373       .  A
C537        C538   1.385       .  A
C538        C539   1.405       .  A
C538        N544   1.345       .  A
C539        C540   1.404       .  A
C539        H548   1.082       .  S
C540        C543   1.379       .  A
N541        C542   1.353       .  A
N541        H551   1.044       .  S
C542        C543   1.395       .  A
C543        H549   1.082       .  S
N544        C545   1.356       .  A
N544        H552   1.044       .  S
C545        C546   1.392       .  A
C546        H550   1.082       .  S
C553        C558   1.385       .  A
C553        C554   1.402       .  A
C553        N559   1.345       .  A
C554        C555   1.403       .  A
C554        H565   1.082       .  S
C555        C564   1.376       .  A
C555        C556   1.385       .  A
C556        C557   1.405       .  A
C556        N562   1.347       .  A
C557        C558   1.405       .  A
C557        H566   1.082       .  S
C558        C561   1.378       .  A
N559        C560   1.355       .  A
N559        H569   1.044       .  S
C560        C561   1.395       .  A
C561        H567   1.082       .  S
N562        C563   1.357       .  A
N562        H570   1.044       .  S
C563        C564   1.394       .  A
C564        H568   1.082       .  S
C571        C576   1.385       .  A
C571        C572   1.406       .  A
C571        N577   1.346       .  A
C572        C573   1.405       .  A
C572        H583   1.082       .  S
C573        C582   1.381       .  A
C573        C574   1.385       .  A
C574        C575   1.402       .  A
C574        N580   1.343       .  A
C575        C576   1.401       .  A
C575        H584   1.082       .  S
C576        C579   1.377       .  A
N577        C578   1.357       .  A
N577        H587   1.044       .  S
C578        C579   1.393       .  A
C579        H585   1.082       .  S
N580        C581   1.354       .  A
N580        H588   1.044       .  S
C581        C582   1.396       .  A
C582        H586   1.082       .  S
C589        C594   1.385       .  A
C589        C590   1.403       .  A
C589        N595   1.342       .  A
C590        C591   1.402       .  A
C590        H601   1.082       .  S
C591        C600   1.379       .  A
C591        C592   1.385       .  A
C592        C593   1.402       .  A
C592        N598   1.341       .  A
C593        C594   1.401       .  A
C593        H602   1.082       .  S
C594        C597   1.377       .  A
N595        C596   1.355       .  A
N595        H605   1.044       .  S
C596        C597   1.393       .  A
C597        H603   1.082       .  S
N598        C599   1.355       .  A
N598        H606   1.044       .  S
C599        C600   1.394       .  A
C600        H604   1.082       .  S
C607        C612   1.385       .  A
C607        C608   1.404       .  A
C607        N613   1.344       .  A
C608        C609   1.404       .  A
C608        H619   1.082       .  S
C609        C618   1.379       .  A
C609        C610   1.385       .  A
C610        C611   1.400       .  A
C610        N616   1.342       .  A
C611        C612   1.400       .  A
C611        H620   1.082       .  S
C612        C615   1.374       .  A
N613        C614   1.355       .  A
N613        H623   1.044       .  S
C614        C615   1.392       .  A
C615        H621   1.082       .  S
N616        C617   1.353       .  A
N616        H624   1.044       .  S
C617        C618   1.395       .  A
C618        H622   1.082       .  S
C625        C630   1.385       .  A
C625        C626   1.402       .  A
C625        N631   1.343       .  A
C626        C627   1.401       .  A
C626        H637   1.082       .  S
C627        C636   1.376       .  A
C627        C628   1.385       .  A
C628        C629   1.403       .  A
C628        N634   1.343       .  A
C629        C630   1.402       .  A
C629        H638   1.082       .  S
C630        C633   1.377       .  A
N631        C632   1.354       .  A
N631        H641   1.045       .  S
C632        C633   1.393       .  A
C633        H639   1.082       .  S
N634        C635   1.355       .  A
N634        H642   1.045       .  S
C635        C636   1.393       .  A
C636        H640   1.082       .  S
C643        C648   1.385       .  A
C643        C644   1.404       .  A
C643        N649   1.343       .  A
C644        C645   1.404       .  A
C644        H655   1.082       .  S
C645        C654   1.380       .  A
C645        C646   1.385       .  A
C646        C647   1.400       .  A
C646        N652   1.340       .  A
C647        C648   1.399       .  A
C647        H656   1.082       .  S
C648        C651   1.374       .  A
N649        C650   1.356       .  A
N649        H659   1.045       .  S
C650        C651   1.392       .  A
C651        H657   1.082       .  S
N652        C653   1.353       .  A
N652        H660   1.045       .  S
C653        C654   1.395       .  A
C654        H658   1.082       .  S
C661        C666   1.385       .  A
C661        C662   1.401       .  A
C661        N667   1.342       .  A
C662        C663   1.400       .  A
C662        H673   1.082       .  S
C663        C672   1.375       .  A
C663        C664   1.385       .  A
C664        C665   1.404       .  A
C664        N670   1.345       .  A
C665        C666   1.404       .  A
C665        H674   1.082       .  S
C666        C669   1.379       .  A
N667        C668   1.353       .  A
N667        H677   1.044       .  S
C668        C669   1.396       .  A
C669        H675   1.083       .  S
N670        C671   1.355       .  A
N670        H678   1.044       .  S
C671        C672   1.393       .  A
C672        H676   1.082       .  S
C679        C684   1.385       .  A
C679        C680   1.406       .  A
C679        N685   1.345       .  A
C680        C681   1.405       .  A
C680        H691   1.082       .  S
C681        C690   1.381       .  A
C681        C682   1.385       .  A
C682        C683   1.401       .  A
C682        N688   1.342       .  A
C683        C684   1.401       .  A
C683        H692   1.082       .  S
C684        C687   1.375       .  A
N685        C686   1.356       .  A
N685        H695   1.045       .  S
C686        C687   1.393       .  A
C687        H693   1.082       .  S
N688        C689   1.354       .  A
N688        H696   1.045       .  S
C689        C690   1.397       .  A
C690        H694   1.082       .  S
C697        C702   1.385       .  A
C697        C698   1.400       .  A
C697        N703   1.341       .  A
C698        C699   1.399       .  A
C698        H709   1.082       .  S
C699        C708   1.374       .  A
C699        C700   1.385       .  A
C700        C701   1.403       .  A
C700        N706   1.343       .  A
C701        C702   1.403       .  A
C701        H710   1.082       .  S
C702        C705   1.377       .  A
N703        C704   1.353       .  A
N703        H713   1.044       .  S
C704        C705   1.394       .  A
C705        H711   1.082       .  S
N706        C707   1.355       .  A
N706        H714   1.044       .  S
C707        C708   1.392       .  A
C708        H712   1.082       .  S
C715        C720   1.385       .  A
C715        C716   1.403       .  A
C715        N721   1.342       .  A
C716        C717   1.402       .  A
C716        H727   1.082       .  S
C717        C726   1.378       .  A
C717        C718   1.385       .  A
C718        C719   1.401       .  A
C718        N724   1.341       .  A
C719        C720   1.400       .  A
C719        H728   1.082       .  S
C720        C723   1.376       .  A
N721        C722   1.355       .  A
N721        H731   1.044       .  S
C722        C723   1.393       .  A
C723        H729   1.082       .  S
N724        C725   1.353       .  A
N724        H732   1.044       .  S
C725        C726   1.394       .  A
C726        H730   1.083       .  S
C733        C738   1.386       .  A
C733        C734   1.400       .  A
C733        N739   1.339       .  A
C734        C735   1.399       .  A
C734        H745   1.082       .  S
C735        C744   1.375       .  A
C735        C736   1.385       .  A
C736        C737   1.403       .  A
C736        N742   1.342       .  A
C737        C738   1.401       .  A
C737        H746   1.082       .  S
C738        C741   1.377       .  A
N739        C740   1.353       .  A
N739        H749   1.045       .  S
C740        C741   1.393       .  A
C741        H747   1.083       .  S
N742        C743   1.354       .  A
N742        H750   1.045       .  S
C743        C744   1.392       .  A
C744        H748   1.082       .  S
C751        C756   1.385       .  A
C751        C752   1.404       .  A
C751        N757   1.345       .  A
C752        C753   1.403       .  A
C752        H763   1.082       .  S
C753        C762   1.378       .  A
C753        C754   1.385       .  A
C754        C755   1.402       .  A
C754        N760   1.344       .  A
C755        C756   1.402       .  A
C755        H764   1.082       .  S
C756        C759   1.377       .  A
N757        C758   1.356       .  A
N757        H767   1.044       .  S
C758        C759   1.393       .  A
C759        H765   1.082       .  S
N760        C761   1.355       .  A
N760        H768   1.044       .  S
C761        C762   1.394       .  A
C762        H766   1.082       .  S
C769        C774   1.385       .  A
C769        C770   1.402       .  A
C769        N775   1.342       .  A
C770        C771   1.401       .  A
C770        H781   1.082       .  S
C771        C780   1.377       .  A
C771        C772   1.385       .  A
C772        C773   1.404       .  A
C772        N778   1.344       .  A
C773        C774   1.404       .  A
C773        H782   1.082       .  S
C774        C777   1.379       .  A
N775        C776   1.354       .  A
N775        H785   1.044       .  S
C776        C777   1.396       .  A
C777        H783   1.083       .  S
N778        C779   1.355       .  A
N778        H786   1.044       .  S
C779        C780   1.394       .  A
C780        H784   1.082       .  S
C787        C792   1.386       .  A
C787        C788   1.403       .  A
C787        N793   1.343       .  A
C788        C789   1.402       .  A
C788        H799   1.082       .  S
C789        C798   1.377       .  A
C789        C790   1.385       .  A
C790        C791   1.402       .  A
C790        N796   1.342       .  A
C791        C792   1.401       .  A
C791        H800   1.082       .  S
C792        C795   1.376       .  A
N793        C794   1.354       .  A
N793        H803   1.046       .  S
C794        C795   1.392       .  A
C795        H801   1.082       .  S
N796        C797   1.354       .  A
N796        H804   1.045       .  S
C797        C798   1.394       .  A
C798        H802   1.082       .  S
C805        C810   1.386       .  A
C805        C806   1.400       .  A
C805        N811   1.340       .  A
C806        C807   1.399       .  A
C806        H817   1.082       .  S
C807        C816   1.375       .  A
C807        C808   1.385       .  A
C808        C809   1.402       .  A
C808        N814   1.341       .  A
C809        C810   1.401       .  A
C809        H818   1.083       .  S
C810        C813   1.377       .  A
N811        C812   1.352       .  A
N811        H821   1.045       .  S
C812        C813   1.393       .  A
C813        H819   1.083       .  S
N814        C815   1.354       .  A
N814        H822   1.045       .  S
C815        C816   1.392       .  A
C816        H820   1.082       .  S
C823        C828   1.385       .  A
C823        C824   1.406       .  A
C823        N829   1.345       .  A
C824        C825   1.405       .  A
C824        H835   1.082       .  S
C825        C834   1.380       .  A
C825        C826   1.385       .  A
C826        C827   1.400       .  A
C826        N832   1.341       .  A
C827        C828   1.399       .  A
C827        H836   1.082       .  S
C828        C831   1.374       .  A
N829        C830   1.357       .  A
N829        H839   1.045       .  S
C830        C831   1.392       .  A
C831        H837   1.082       .  S
N832        C833   1.353       .  A
N832        H840   1.045       .  S
C833        C834   1.395       .  A
C834        H838   1.082       .  S
C841        C846   1.385       .  A
C841        C842   1.401       .  A
C841        N847   1.342       .  A
C842        C843   1.400       .  A
C842        H853   1.082       .  S
C843        C852   1.375       .  A
C843        C844   1.385       .  A
C844        C845   1.405       .  A
C844        N850   1.345       .  A
C845        C846   1.405       .  A
C845        H854   1.082       .  S
C846        C849   1.380       .  A
N847        C848   1.354       .  A
N847        H857   1.046       .  S
C848        C849   1.396       .  A
C849        H855   1.082       .  S
N850        C851   1.356       .  A
N850        H858   1.045       .  S
C851        C852   1.392       .  A
C852        H856   1.082       .  S
C859        C864   1.386       .  A
C859        C860   1.400       .  A
C859        N865   1.342       .  A
C860        C861   1.400       .  A
C860        H871   1.082       .  S
C861        C870   1.374       .  A
C861        C862   1.386       .  A
C862        C863   1.400       .  A
C862        N868   1.341       .  A
C863        C864   1.399       .  A
C863        H872   1.083       .  S
C864        C867   1.372       .  A
N865        C866   1.354       .  A
N865        H875   1.045       .  S
C866        C867   1.393       .  A
C867        H873   1.082       .  S
N868        C869   1.353       .  A
N868        H876   1.045       .  S
C869        C870   1.391       .  A
C870        H874   1.082       .  S
C877        C882   1.386       .  A
C877        C878   1.398       .  A
C877        N883   1.339       .  A
C878        C879   1.397       .  A
C878        H889   1.082       .  S
C879        C888   1.370       .  A
C879        C880   1.385       .  A
C880        C881   1.402       .  A
C880        N886   1.344       .  A
C881        C882   1.402       .  A
C881        H890   1.082       .  S
C882        C885   1.376       .  A
N883        C884   1.352       .  A
N883        H893   1.044       .  S
C884        C885   1.393       .  A
C885        H891   1.082       .  S
N886        C887   1.355       .  A
N886        H894   1.043       .  S
C887        C888   1.390       .  A
C888        H892   1.082       .  S
C895        C900   1.385       .  A
C895        C896   1.403       .  A
C895        N901   1.343       .  A
C896        C897   1.402       .  A
C896        H907   1.082       .  S
C897        C906   1.378       .  A
C897        C898   1.385       .  A
C898        C899   1.404       .  A
C898        N904   1.343       .  A
C899        C900   1.404       .  A
C899        H908   1.082       .  S
C900        C903   1.380       .  A
N901        C902   1.355       .  A
N901        H911   1.044       .  S
C902        C903   1.396       .  A
C903        H909   1.082       .  S
N904        C905   1.355       .  A
N904        H912   1.044       .  S
C905        C906   1.393       .  A
C906        H910   1.082       .  S
C913        C918   1.385       .  A
C913        C914   1.403       .  A
C913        N919   1.341       .  A
C914        C915   1.402       .  A
C914        H925   1.082       .  S
C915        C924   1.380       .  A
C915        C916   1.385       .  A
C916        C917   1.403       .  A
C916        N922   1.342       .  A
C917        C918   1.401       .  A
C917        H926   1.082       .  S
C918        C921   1.379       .  A
N919        C920   1.354       .  A
N919        H929   1.045       .  S
C920        C921   1.393       .  A
C921        H927   1.082       .  S
N922        C923   1.355       .  A
N922        H930   1.045       .  S
C923        C924   1.395       .  A
C924        H928   1.082       .  S
C931        C936   1.385       .  A
C931        C932   1.401       .  A
C931        N937   1.339       .  A
C932        C933   1.399       .  A
C932        H943   1.082       .  S
C933        C942   1.376       .  A
C933        C934   1.385       .  A
C934        C935   1.402       .  A
C934        N940   1.340       .  A
C935        C936   1.400       .  A
C935        H944   1.082       .  S
C936        C939   1.378       .  A
N937        C938   1.353       .  A
N937        H947   1.045       .  S
C938        C939   1.393       .  A
C939        H945   1.082       .  S
N940        C941   1.353       .  A
N940        H948   1.045       .  S
C941        C942   1.392       .  A
C942        H946   1.083       .  S
C949        C954   1.385       .  A
C949        C950   1.403       .  A
C949        N955   1.343       .  A
C950        C951   1.402       .  A
C950        H961   1.082       .  S
C951        C960   1.378       .  A
C951        C952   1.385       .  A
C952        C953   1.406       .  A
C952        N958   1.345       .  A
C953        C954   1.405       .  A
C953        H962   1.082       .  S
C954        C957   1.381       .  A
N955        C956   1.355       .  A
N955        H965   1.045       .  S
C956        C957   1.396       .  A
C957        H963   1.082       .  S
N958        C959   1.356       .  A
N958        H966   1.045       .  S
C959        C960   1.394       .  A
C960        H964   1.082       .  S
C967        C972   1.386       .  A
C967        C968   1.400       .  A
C967        N973   1.340       .  A
C968        C969   1.400       .  A
C968        H979   1.083       .  S
C969        C978   1.373       .  A
C969        C970   1.386       .  A
C970        C971   1.401       .  A
C970        N976   1.342       .  A
C971        C972   1.400       .  A
C971        H980   1.082       .  S
C972        C975   1.375       .  A
N973        C974   1.354       .  A
N973        H983   1.046       .  S
C974        C975   1.392       .  A
C975        H981   1.082       .  S
N976        C977   1.353       .  A
N976        H984   1.045       .  S
C977        C978   1.393       .  A
C978        H982   1.083       .  S
C985        C990   1.386       .  A
C985        C986   1.400       .  A
C985        N991   1.341       .  A
C986        C987   1.399       .  A
C986        H997   1.082       .  S
C987        C996   1.373       .  A
C987        C988   1.385       .  A
C988        C989   1.403       .  A
C988        N994   1.343       .  A
C989        C990   1.402       .  A
C989        H998   1.082       .  S
C990        C993   1.377       .  A
N991        C992   1.353       .  A
N991       H1001   1.045       .  S
C992        C993   1.394       .  A
C993        H999   1.082       .  S
N994        C995   1.354       .  A
N994       H1002   1.045       .  S
C995        C996   1.392       .  A
C996       H1000   1.083       .  S
C1003      C1008   1.385       .  A
C1003      C1004   1.399       .  A
C1003      N1009   1.338       .  A
C1004      C1005   1.397       .  A
C1004      H1015   1.082       .  S
C1005      C1014   1.374       .  A
C1005      C1006   1.385       .  A
C1006      C1007   1.402       .  A
C1006      N1012   1.341       .  A
C1007      C1008   1.401       .  A
C1007      H1016   1.082       .  S
C1008      C1011   1.378       .  A
N1009      C1010   1.352       .  A
N1009      H1019   1.044       .  S
C1010      C1011   1.394       .  A
C1011      H1017   1.082       .  S
N1012      C1013   1.354       .  A
N1012      H1020   1.044       .  S
C1013      C1014   1.391       .  A
C1014      H1018   1.083       .  S
C1021      C1026   1.385       .  A
C1021      C1022   1.402       .  A
C1021      N1027   1.341       .  A
C1022      C1023   1.401       .  A
C1022      H1033   1.082       .  S
C1023      C1032   1.378       .  A
C1023      C1024   1.385       .  A
C1024      C1025   1.403       .  A
C1024      N1030   1.341       .  A
C1025      C1026   1.401       .  A
C1025      H1034   1.082       .  S
C1026      C1029   1.379       .  A
N1027      C1028   1.354       .  A
N1027      H1037   1.044       .  S
C1028      C1029   1.394       .  A
C1029      H1035   1.082       .  S
N1030      C1031   1.354       .  A
N1030      H1038   1.044       .  S
C1031      C1032   1.394       .  A
C1032      H1036   1.082       .  S
C1039      C1044   1.384       .  A
C1039      C1040   1.407       .  A
C1039      N1045   1.344       .  A
C1040      C1041   1.405       .  A
C1040      H1051   1.082       .  S
C1041      C1050   1.384       .  A
C1041      C1042   1.385       .  A
C1042      C1043   1.402       .  A
C1042      N1048   1.341       .  A
C1043      C1044   1.400       .  A
C1043      H1052   1.082       .  S
C1044      C1047   1.379       .  A
N1045      C1046   1.357       .  A
N1045      H1055   1.045       .  S
C1046      C1047   1.394       .  A
C1047      H1053   1.082       .  S
N1048      C1049   1.353       .  A
N1048      H1056   1.045       .  S
C1049      C1050   1.397       .  A
C1050      H1054   1.083       .  S
C1057      C1062   1.385       .  A
C1057      C1058   1.400       .  A
C1057      N1063   1.341       .  A
C1058      C1059   1.399       .  A
C1058      H1069   1.082       .  S
C1059      C1068   1.373       .  A
C1059      C1060   1.386       .  A
C1060      C1061   1.402       .  A
C1060      N1066   1.343       .  A
C1061      C1062   1.402       .  A
C1061      H1070   1.082       .  S
C1062      C1065   1.377       .  A
N1063      C1064   1.353       .  A
N1063      H1073   1.045       .  S
C1064      C1065   1.395       .  A
C1065      H1071   1.082       .  S
N1066      C1067   1.354       .  A
N1066      H1074   1.045       .  S
C1067      C1068   1.391       .  A
C1068      H1072   1.083       .  S
C1075      C1080   1.385       .  A
C1075      C1076   1.402       .  A
C1075      N1081   1.344       .  A
C1076      C1077   1.402       .  A
C1076      H1087   1.082       .  S
C1077      C1086   1.376       .  A
C1077      C1078   1.385       .  A
C1078      C1079   1.405       .  A
C1078      N1084   1.346       .  A
C1079      C1080   1.404       .  A
C1079      H1088   1.082       .  S
C1080      C1083   1.379       .  A
N1081      C1082   1.354       .  A
N1081      H1091   1.044       .  S
C1082      C1083   1.395       .  A
C1083      H1089   1.082       .  S
N1084      C1085   1.356       .  A
N1084      H1092   1.044       .  S
C1085      C1086   1.395       .  A
C1086      H1090   1.082       .  S
C1093      C1098   1.385       .  A
C1093      C1094   1.405       .  A
C1093      N1099   1.347       .  A
C1094      C1095   1.405       .  A
C1094      H1105   1.082       .  S
C1095      C1104   1.379       .  A
C1095      C1096   1.385       .  A
C1096      C1097   1.402       .  A
C1096      N1102   1.344       .  A
C1097      C1098   1.402       .  A
C1097      H1106   1.082       .  S
C1098      C1101   1.375       .  A
N1099      C1100   1.357       .  A
N1099      H1109   1.044       .  S
C1100      C1101   1.394       .  A
C1101      H1107   1.082       .  S
N1102      C1103   1.354       .  A
N1102      H1110   1.044       .  S
C1103      C1104   1.396       .  A
C1104      H1108   1.082       .  S
C1111      C1116   1.385       .  A
C1111      C1112   1.401       .  A
C1111      N1117   1.340       .  A
C1112      C1113   1.400       .  A
C1112      H1123   1.082       .  S
C1113      C1122   1.376       .  A
C1113      C1114   1.386       .  A
C1114      C1115   1.402       .  A
C1114      N1120   1.341       .  A
C1115      C1116   1.400       .  A
C1115      H1124   1.083       .  S
C1116      C1119   1.376       .  A
N1117      C1118   1.354       .  A
N1117      H1127   1.045       .  S
C1118      C1119   1.392       .  A
C1119      H1125   1.082       .  S
N1120      C1121   1.354       .  A
N1120      H1128   1.045       .  S
C1121      C1122   1.391       .  A
C1122      H1126   1.082       .  S
C1129      C1134   1.386       .  A
C1129      C1130   1.398       .  A
C1129      N1135   1.339       .  A
C1130      C1131   1.398       .  A
C1130      H1141   1.083       .  S
C1131      C1140   1.371       .  A
C1131      C1132   1.386       .  A
C1132      C1133   1.397       .  A
C1132      N1138   1.339       .  A
C1133      C1134   1.397       .  A
C1133      H1142   1.083       .  S
C1134      C1137   1.370       .  A
N1135      C1136   1.352       .  A
N1135      H1145   1.045       .  S
C1136      C1137   1.390       .  A
C1137      H1143   1.083       .  S
N1138      C1139   1.352       .  A
N1138      H1146   1.046       .  S
C1139      C1140   1.390       .  A
C1140      H1144   1.082       .  S
C1147      C1152   1.385       .  A
C1147      C1148   1.400       .  A
C1147      N1153   1.340       .  A
C1148      C1149   1.399       .  A
C1148      H1159   1.082       .  S
C1149      C1158   1.375       .  A
C1149      C1150   1.385       .  A
C1150      C1151   1.403       .  A
C1150      N1156   1.342       .  A
C1151      C1152   1.402       .  A
C1151      H1160   1.082       .  S
C1152      C1155   1.377       .  A
N1153      C1154   1.353       .  A
N1153      H1163   1.045       .  S
C1154      C1155   1.393       .  A
C1155      H1161   1.082       .  S
N1156      C1157   1.355       .  A
N1156      H1164   1.045       .  S
C1157      C1158   1.392       .  A
C1158      H1162   1.082       .  S
C1165      C1170   1.386       .  A
C1165      C1166   1.400       .  A
C1165      N1171   1.340       .  A
C1166      C1167   1.398       .  A
C1166      H1177   1.083       .  S
C1167      C1176   1.373       .  A
C1167      C1168   1.386       .  A
C1168      C1169   1.398       .  A
C1168      N1174   1.339       .  A
C1169      C1170   1.398       .  A
C1169      H1178   1.083       .  S
C1170      C1173   1.372       .  A
N1171      C1172   1.353       .  A
N1171      H1181   1.046       .  S
C1172      C1173   1.390       .  A
C1173      H1179   1.082       .  S
N1174      C1175   1.352       .  A
N1174      H1182   1.045       .  S
C1175      C1176   1.391       .  A
C1176      H1180   1.083       .  S
C1183      C1188   1.385       .  A
C1183      C1184   1.403       .  A
C1183      N1189   1.342       .  A
C1184      C1185   1.402       .  A
C1184      H1195   1.082       .  S
C1185      C1194   1.379       .  A
C1185      C1186   1.385       .  A
C1186      C1187   1.402       .  A
C1186      N1192   1.341       .  A
C1187      C1188   1.401       .  A
C1187      H1196   1.082       .  S
C1188      C1191   1.377       .  A
N1189      C1190   1.355       .  A
N1189      H1199   1.045       .  S
C1190      C1191   1.394       .  A
C1191      H1197   1.082       .  S
N1192      C1193   1.354       .  A
N1192      H1200   1.045       .  S
C1193      C1194   1.393       .  A
C1194      H1198   1.082       .  S
