geometry optimzed in LAMMPS
_audit_creation_date              2020-11-30 
_audit_creation_method            'lammps2cif' 
_symmetry_space_group_name_H-M    'P1' 
_symmetry_Int_Tables_number       1 
_symmetry_cell_setting            triclinic 
loop_ 
_symmetry_equiv_pos_as_xyz 
  x,y,z 
_cell_length_a                    27.8386463 
_cell_length_b                    27.997128232142725 
_cell_length_c                    27.08640051406622 
_cell_angle_alpha                 90.13400210598824 
_cell_angle_beta                  89.77334473070175 
_cell_angle_gamma                 90.09009385592616 
loop_ 
_atom_site_label 
_atom_site_type_symbol 
_atom_site_fract_x 
_atom_site_fract_y 
_atom_site_fract_z 
_atom_site_charge 
C1          C  0.87371359  0.36331156  0.05354767     0.30400
C2          C  0.87317246  0.36494826  0.28184172     0.30400
C3          C  0.90701035  0.40015938  0.02713500    -0.05800
C4          C  0.89363519  0.31759295  0.02594101    -0.06600
C5          C  0.82547320  0.36693056  0.02771663    -0.06400
C6          C  0.90643849  0.40127419  0.30806556    -0.05800
C7          C  0.89462687  0.31916567  0.30723574    -0.06600
C8          C  0.82517904  0.36778100  0.30910395    -0.06400
C9          C  0.95396236  0.41099217  0.29453311    -0.31800
N10         N  0.98076136  0.42218652  0.33380897     0.14700
C11         C  0.95481820  0.41040399  0.03939307    -0.31800
H12         H  0.97141124  0.40596848  0.07501306     0.16600
C13         C  0.91730758  0.27748541  0.29213667    -0.30800
N14         N  0.92335861  0.24854199  0.99710178     0.13400
C15         C  0.91338320  0.27400789  0.03825175    -0.30800
C16         C  0.78194308  0.34728834  0.29624955    -0.31100
N17         N  0.75330078  0.34196690  0.00277647     0.13900
H18         H  0.77255169  0.33379096  0.26034755     0.16500
C19         C  0.78248811  0.34603662  0.04162738    -0.31100
H20         H  0.77269950  0.33321888  0.07788043     0.16500
H21         H  0.91952307  0.26038662  0.07416121     0.16500
H22         H  0.97005453  0.40592672  0.25863008     0.16600
H23         H  0.92677253  0.26709461  0.25509834     0.16500
C24         C  0.86683682  0.36968253  0.11519893     0.30400
C25         C  0.86613553  0.37113911  0.22055998     0.30400
C26         C  0.90266564  0.40376787  0.14120527    -0.05800
C27         C  0.81996614  0.38992946  0.14106347    -0.06600
C28         C  0.87111201  0.32210927  0.14287745    -0.06400
C29         C  0.90239743  0.40444043  0.19387594    -0.05800
C30         C  0.81937167  0.39005572  0.19397437    -0.06600
C31         C  0.87039932  0.32309305  0.19471177    -0.06400
C32         C  0.91238998  0.45181719  0.20662554    -0.31800
N33         N  0.92373409  0.47783031  0.16678362     0.14700
C34         C  0.91239569  0.45091352  0.12758808    -0.31800
H35         H  0.90724565  0.46676520  0.09177899     0.16600
C36         C  0.77495029  0.40850944  0.20732909    -0.30800
N37         N  0.74825025  0.41683993  0.16677968     0.13400
C38         C  0.77655392  0.41004682  0.12677541    -0.30800
C39         C  0.85067059  0.28003727  0.20943425    -0.31100
N40         N  0.84695620  0.25041653  0.17095144     0.13900
H41         H  0.83896010  0.27025551  0.24610260     0.16500
C42         C  0.85235726  0.27795808  0.13061301    -0.31100
H43         H  0.83982196  0.26743678  0.09473724     0.16500
H44         H  0.76515173  0.41853703  0.09007501     0.16500
H45         H  0.90772914  0.46826339  0.24236132     0.16600
H46         H  0.76171660  0.41524974  0.24356694     0.16500
C47         C  0.37057907  0.06960940  0.05554853     0.30400
C48         C  0.37043666  0.06673249  0.28425744     0.30400
C49         C  0.41365333  0.04210466  0.03000064    -0.05800
C50         C  0.32829217  0.04697741  0.02820364    -0.06600
C51         C  0.37948594  0.11823410  0.03022355    -0.06400
C52         C  0.41083270  0.03956586  0.31373000    -0.05800
C53         C  0.32698195  0.04452145  0.31054506    -0.06600
C54         C  0.37750902  0.11586403  0.30958281    -0.06400
C55         C  0.44848479  0.01062626  0.30335804    -0.31800
N56         N  0.47978386  0.00887433  0.34067129     0.14700
C57         C  0.45870119  0.02608436  0.04433674    -0.31800
H58         H  0.47193820  0.02336062  0.08159759     0.16600
C59         C  0.29971065  0.00513751  0.29728432    -0.30800
N60         N  0.27869118  0.98938928  0.00085875     0.13400
C61         C  0.30028010  0.00797342  0.04096529    -0.30800
C62         C  0.41300930  0.14861274  0.29660941    -0.31100
N63         N  0.43388336  0.17329128  0.00526164     0.13900
H64         H  0.43068416  0.15147923  0.26126657     0.16500
C65         C  0.41483596  0.15101931  0.04427499    -0.31100
H66         H  0.43070023  0.15510954  0.08030046     0.16500
H67         H  0.29533934  0.99320365  0.07739039     0.16500
H68         H  0.44232430  0.97800599  0.28393104     0.16600
H69         H  0.29675970  0.98972069  0.26088252     0.16500
C70         C  0.36532959  0.07094617  0.22167092     0.30400
C71         C  0.36183108  0.07189633  0.11632582     0.30400
C72         C  0.40187171  0.04056103  0.19123589    -0.05800
C73         C  0.31574023  0.05835015  0.19642547    -0.06600
C74         C  0.37220091  0.12038704  0.19592799    -0.06400
C75         C  0.39403256  0.03574518  0.14081217    -0.05800
C76         C  0.31413536  0.05931854  0.14354179    -0.06600
C77         C  0.37149516  0.12058574  0.14332010    -0.06400
C78         C  0.40115388  0.98750204  0.12965730    -0.31800
N79         N  0.42219025  0.96640511  0.16857253     0.14700
C80         C  0.42648385  0.00054917  0.20296558    -0.31800
H81         H  0.46245717  0.00634068  0.21648003     0.16600
C82         C  0.26621279  0.06289457  0.13075601    -0.30800
N83         N  0.23880058  0.06043637  0.17178301     0.13400
C84         C  0.26801121  0.06214036  0.21146032    -0.30800
C85         C  0.35656504  0.16649501  0.13066398    -0.31100
N86         N  0.35458146  0.19513305  0.17042286     0.13900
H87         H  0.34456046  0.17832874  0.09496670     0.16500
C88         C  0.35770136  0.16638313  0.20982926    -0.31100
H89         H  0.34693056  0.17860912  0.24597442     0.16500
H90         H  0.25465547  0.06729372  0.24855314     0.16500
H91         H  0.39321890  0.96968928  0.09515413     0.16600
H92         H  0.25184453  0.06800449  0.09436274     0.16500
C93         C  0.57088365  0.86529524  0.05535606     0.30400
C94         C  0.57046055  0.86536577  0.28359321     0.30400
C95         C  0.54575808  0.90700370  0.02880117    -0.05800
C96         C  0.62170258  0.86768546  0.02967932    -0.06600
C97         C  0.55342092  0.81940334  0.02856697    -0.06400
C98         C  0.54392540  0.90544082  0.31160898    -0.05800
C99         C  0.62095559  0.86850179  0.31000228    -0.06600
C100        C  0.55390969  0.81854703  0.30937768    -0.06400
C101        C  0.53137952  0.95146963  0.29893283    -0.31800
N102        N  0.51883926  0.97657189  0.33987546     0.14700
C103        C  0.53476870  0.95341910  0.04318154    -0.31800
H104        H  0.53592093  0.96780967  0.08012067     0.16600
C105        C  0.66901368  0.86790271  0.29649275    -0.30800
N106        N  0.69843981  0.86855295  0.00427172     0.13400
C107        C  0.66947580  0.86515399  0.04423114    -0.30800
C108        C  0.56739640  0.77218007  0.29571994    -0.31100
N109        N  0.56737471  0.74424047  0.00159594     0.13900
H110        H  0.58051506  0.76045696  0.26026003     0.16500
C111        C  0.56518529  0.77235144  0.04131126    -0.31100
H112        H  0.57735643  0.75944798  0.07656438     0.16500
H113        H  0.68302467  0.86168374  0.08110145     0.16500
H114        H  0.53044399  0.96627416  0.26223007     0.16600
H115        H  0.68351894  0.86721276  0.26015804     0.16500
C116        C  0.56276425  0.86724190  0.22181216     0.30400
C117        C  0.56295119  0.86669417  0.11654016     0.30400
C118        C  0.52293456  0.89739116  0.19522921    -0.05800
C119        C  0.60714918  0.88628332  0.19479494    -0.06600
C120        C  0.55054983  0.81937594  0.19568012    -0.06400
C121        C  0.52321733  0.89727354  0.14219246    -0.05800
C122        C  0.60695991  0.88613324  0.14301823    -0.06600
C123        C  0.55061447  0.81904206  0.14294792    -0.06400
C124        C  0.47852656  0.91318454  0.12739718    -0.31800
N125        N  0.45308882  0.92645280  0.16756096     0.14700
C126        C  0.47730362  0.91158538  0.20819032    -0.31800
H127        H  0.46258277  0.91187295  0.24503249     0.16600
C128        C  0.63715978  0.92271527  0.12881894    -0.30800
N129        N  0.66125333  0.93936124  0.16784125     0.13400
C130        C  0.63821248  0.92268198  0.20789387    -0.30800
C131        C  0.51257705  0.78871512  0.13036700    -0.31100
N132        N  0.49430568  0.76644729  0.16972102     0.13900
H133        H  0.49479188  0.78649167  0.09514551     0.16500
C134        C  0.51264556  0.78910003  0.20882240    -0.31100
H135        H  0.49516391  0.78676484  0.24433482     0.16500
H136        H  0.64284648  0.93799330  0.24412091     0.16500
H137        H  0.46509609  0.91561667  0.09015405     0.16600
H138        H  0.64118200  0.93751835  0.09233856     0.16500
C139        C  0.07273686  0.56618785  0.27927831     0.30400
C140        C  0.07400180  0.56490950  0.05103905     0.30400
C141        C  0.03761809  0.53112711  0.30584894    -0.05800
C142        C  0.11986292  0.54769366  0.30520244    -0.06600
C143        C  0.06673731  0.61379777  0.30651558    -0.06400
C144        C  0.03824691  0.53105160  0.02486723    -0.05800
C145        C  0.12078634  0.54654848  0.02359642    -0.06600
C146        C  0.06884900  0.61291175  0.02546927    -0.06400
C147        C  0.02931016  0.48357258  0.03783530    -0.31800
N148        N  0.01772971  0.45700168  0.33298638     0.14700
C149        C  0.02857952  0.48342852  0.29311985    -0.31800
H150        H  0.03329264  0.46716892  0.25730333     0.16600
C151        C  0.16485800  0.52726719  0.03631298    -0.30800
N152        N  0.19083509  0.51996491  0.33112243     0.13400
C153        C  0.16318227  0.52718160  0.29085517    -0.30800
C154        C  0.08731907  0.65639466  0.04041867    -0.31100
N155        N  0.08764779  0.68623616  0.33404668     0.13900
H156        H  0.09796723  0.66666901  0.07724213     0.16500
C157        C  0.08361495  0.65857828  0.29368573    -0.31100
H158        H  0.09434012  0.67052632  0.25740939     0.16500
H159        H  0.17471290  0.51834216  0.25387679     0.16500
H160        H  0.03509840  0.46727587  0.07334516     0.16600
H161        H  0.17749726  0.51950385  0.07274028     0.16500
C162        C  0.06698501  0.57101456  0.11243338     0.30400
C163        C  0.06667207  0.57257716  0.21768323     0.30400
C164        C  0.03474724  0.53382774  0.13917048    -0.05800
C165        C  0.11518187  0.56977670  0.13925270    -0.06600
C166        C  0.04393920  0.61635110  0.13774350    -0.06400
C167        C  0.03457823  0.53474460  0.19195775    -0.05800
C168        C  0.11515035  0.57038488  0.19099128    -0.06600
C169        C  0.04437176  0.61748992  0.19054217    -0.06400
C170        C  0.98711615  0.52443742  0.20543165    -0.31800
N171        N  0.96059083  0.51268039  0.16615122     0.14700
C172        C  0.98727112  0.52302598  0.12634853    -0.31800
H173        H  0.97088359  0.52743755  0.09065655     0.16600
C174        C  0.15829786  0.59155911  0.20420045    -0.30800
N175        N  0.18692282  0.59722660  0.16458186     0.13400
C176        C  0.15790363  0.59109060  0.12549656    -0.30800
C177        C  0.02043777  0.65903451  0.20325464    -0.31100
N178        N  0.00732298  0.68364258  0.16253899     0.13900
H179        H  0.01374058  0.67192712  0.23937533     0.16500
C180        C  0.01834021  0.65642610  0.12277857    -0.31100
H181        H  0.00937154  0.66634593  0.08562319     0.16500
H182        H  0.16727739  0.60309220  0.08898996     0.16500
H183        H  0.97075158  0.52986403  0.24114998     0.16600
H184        H  0.16848437  0.60357731  0.24060802     0.16500
O185        O  0.92095084  0.93565379  0.04231259    -0.71400
O186        O  0.04926653  0.98616504  0.03784687    -0.71600
O187        O  0.95985953  0.02455229  0.03741193    -0.71400
O188        O  0.01208771  0.89969018  0.04453836    -0.71500
O189        O  0.99085140  0.88887841  0.29990859    -0.71400
O190        O  0.97298693  0.02340768  0.29221264    -0.71400
O191        O  0.04898339  0.96325918  0.29296736    -0.71400
O192        O  0.91334752  0.94651140  0.29757967    -0.71600
V193        V  0.98508815  0.96147244  0.03946585     1.35200
V194        V  0.98127085  0.95591712  0.29661616     1.35200
C195        C  0.89369260  0.93425922  0.33768273     0.77900
C196        C  0.07131405  0.97700943  0.33074055     0.77900
C197        C  0.96122779  0.04657253  0.99687816     0.77800
C198        C  0.01378655  0.87365511  0.00679449     0.77800
O199        O  0.92626259  0.03562135  0.21167695    -0.71400
O200        O  0.97579188  0.90957380  0.20319014    -0.71600
O201        O  0.01613751  0.99737694  0.21003465    -0.71400
O202        O  0.88755449  0.95017648  0.20264638    -0.71500
O203        O  0.88741598  0.96962978  0.12526811    -0.71400
O204        O  0.02144044  0.99114638  0.13072906    -0.71400
O205        O  0.96491345  0.91160330  0.12442659    -0.71400
O206        O  0.94190588  0.04601536  0.13409214    -0.71600
V207        V  0.95184634  0.97321557  0.20577784     1.35200
V208        V  0.95425101  0.97915473  0.12972838     1.35200
C209        C  0.92547139  0.06223614  0.17443729     0.77900
C210        C  0.97564037  0.88777492  0.16239916     0.77900
C211        C  0.04108515  0.00132638  0.17119696     0.77800
C212        C  0.86465434  0.95680545  0.16303167     0.77800
O213        O  0.54127621  0.42883154  0.03755851    -0.71400
O214        O  0.41879682  0.48829181  0.03156493    -0.71600
O215        O  0.45176577  0.39837496  0.03052475    -0.71400
O216        O  0.51061053  0.52105857  0.03756839    -0.71500
O217        O  0.50241838  0.52747334  0.29304871    -0.71400
O218        O  0.47180524  0.39574250  0.28805166    -0.71400
O219        O  0.41906640  0.47596527  0.28807090    -0.71400
O220        O  0.55247660  0.44518076  0.29479170    -0.71600
V221        V  0.48080816  0.45954921  0.03324959     1.35200
V222        V  0.48615403  0.46153204  0.29207522     1.35200
C223        C  0.56811947  0.42781962  0.33461843     0.77900
C224        C  0.39583430  0.48693310  0.32667708     0.77900
C225        C  0.45518522  0.37464387  0.99100578     0.77800
C226        C  0.51465807  0.54588436  0.99884716     0.77800
O227        O  0.44242963  0.40628836  0.12716446    -0.71400
O228        O  0.46423400  0.54098213  0.12111287    -0.71600
O229        O  0.52195754  0.46323074  0.12364257    -0.71400
O230        O  0.38691091  0.48575942  0.12487553    -0.71500
O231        O  0.39355316  0.50433320  0.20220782    -0.71400
O232        O  0.51911713  0.45085021  0.20220512    -0.71400
O233        O  0.48130415  0.53969373  0.19901799    -0.71400
O234        O  0.42830190  0.41422175  0.20523317    -0.71600
V235        V  0.45420217  0.47371194  0.12511408     1.35200
V236        V  0.45565199  0.47680734  0.20114583     1.35200
C237        C  0.42787933  0.38805259  0.16722330     0.77900
C238        C  0.47687206  0.56316860  0.15955545     0.77900
C239        C  0.54363677  0.45220304  0.16287885     0.77800
C240        C  0.36895487  0.50405260  0.16339689     0.77800
C241        C  0.23609636  0.52544900  0.15476089    -0.08700
C242        C  0.23328813  0.57485764  0.16425973     0.07400
C243        C  0.27535672  0.60031571  0.17490855    -0.02500
C244        C  0.31950970  0.57641716  0.17487646    -0.07000
C245        C  0.32214825  0.52754511  0.16293619     0.06600
C246        C  0.28011580  0.50209081  0.15251022    -0.02000
Br247      Br  0.28078452  0.43522211  0.13734652    -0.01700
H248        H  0.20358286  0.50488485  0.14955523     0.10500
H249        H  0.35190260  0.59606387  0.18373957     0.08500
Br250      Br  0.27354373  0.66706563  0.18993218    -0.02100
C251        C  0.03071420  0.76538417  0.18605212    -0.08700
C252        C  0.99851933  0.73466389  0.16168126     0.07400
C253        C  0.95988218  0.75504342  0.13564946    -0.02500
C254        C  0.95407899  0.80503151  0.13446229    -0.07000
C255        C  0.98579732  0.83556870  0.15984393     0.06600
C256        C  0.02473865  0.81510206  0.18532056    -0.02000
Br257      Br  0.07268440  0.85343758  0.21715844    -0.01700
H258        H  0.06121459  0.75048598  0.20532576     0.10500
H259        H  0.92355731  0.81999519  0.11524221     0.08500
Br260      Br  0.91179030  0.71598926  0.10534330    -0.02100
C261        C  0.26088826  0.47182712  0.30579001    -0.08700
C262        C  0.24216039  0.51181171  0.33023627     0.07400
C263        C  0.27503455  0.54623291  0.01185995    -0.02500
C264        C  0.32472124  0.53775328  0.01113001    -0.07000
C265        C  0.34313109  0.49620244  0.32571332     0.06600
C266        C  0.31065939  0.46394938  0.30342011    -0.02000
Br267      Br  0.33188291  0.40650976  0.27272457    -0.01700
H268        H  0.23658140  0.44638525  0.28894217     0.10500
H269        H  0.34893588  0.56440775  0.02607507     0.08500
Br270      Br  0.25399767  0.60779000  0.03363115    -0.02100
C271        C  0.09390393  0.77029374  0.35715226    -0.08700
C272        C  0.07176384  0.73316814  0.00508754     0.07400
C273        C  0.02353746  0.74209850  0.99202093    -0.02500
C274        C  0.00743736  0.78859773  0.98917164    -0.07000
C275        C  0.03425143  0.82575026  0.00904354     0.06600
C276        C  0.07334351  0.81547509  0.36235510    -0.02000
Br277      Br  0.10835818  0.86243194  0.39933349    -0.01700
H278        H  0.12980182  0.76369042  0.37077013     0.10500
H279        H  0.97225123  0.79521728  0.97472035     0.08500
Br280      Br  0.97443073  0.69381908  0.99001823    -0.02100
C281        C  0.52531933  0.68652506  0.18560353    -0.08700
C282        C  0.48758315  0.71561018  0.16927187     0.07400
C283        C  0.44709946  0.69428428  0.14769374    -0.02500
C284        C  0.44509185  0.64441961  0.14238103    -0.07000
C285        C  0.48269981  0.61544204  0.15969317     0.06600
C286        C  0.52297620  0.63706513  0.18133575    -0.02000
Br287      Br  0.57737813  0.60121284  0.20235085    -0.01700
H288        H  0.55752746  0.70259224  0.20050302     0.10500
H289        H  0.41349948  0.62818323  0.12620171     0.08500
Br290      Br  0.39334501  0.73211972  0.12790948    -0.02100
C291        C  0.73323492  0.98637486  0.15079950    -0.08700
C292        C  0.71245593  0.94344152  0.16594266     0.07400
C293        C  0.74234361  0.90310757  0.17378576    -0.02500
C294        C  0.79193297  0.90875026  0.17477694    -0.07000
C295        C  0.81256419  0.95211301  0.16131514     0.06600
C296        C  0.78301577  0.99015255  0.14578053    -0.02000
Br297      Br  0.80800189  0.04676348  0.11515845    -0.01700
H298        H  0.71049076  0.01614867  0.14083549     0.10500
H299        H  0.81462833  0.87839723  0.18306521     0.08500
Br300      Br  0.71951426  0.83829783  0.17512962    -0.02100
C301        C  0.59082873  0.65947974  0.99718183    -0.08700
C302        C  0.55511153  0.69435085  0.00115536     0.07400
C303        C  0.50794298  0.68043009  0.33916017    -0.02500
C304        C  0.49523050  0.63218249  0.34041928    -0.07000
C305        C  0.53009360  0.59642541  0.00089900     0.06600
C306        C  0.57863722  0.61076540  0.99626882    -0.02000
Br307      Br  0.62927929  0.56616370  0.98431602    -0.01700
H308        H  0.62805235  0.67027409  0.99370521     0.10500
H309        H  0.45772643  0.62233213  0.34418953     0.08500
Br310      Br  0.45745238  0.72682767  0.34087504    -0.02100
C311        C  0.78354028  0.85340271  0.34728261    -0.08700
C312        C  0.74629097  0.88544614  0.33772130     0.07400
C313        C  0.76004843  0.93220724  0.01412784    -0.02500
C314        C  0.80838514  0.94706604  0.01449178    -0.07000
C315        C  0.84308312  0.91730937  0.33895871     0.06600
C316        C  0.83150871  0.86896258  0.34789995    -0.02000
Br317      Br  0.87995175  0.82215392  0.35835093    -0.01700
H318        H  0.77524006  0.81612704  0.35372098     0.10500
H319        H  0.81683041  0.98421763  0.02152044     0.08500
Br320      Br  0.71108469  0.97957832  0.02199831    -0.02100
C321        C  0.36087568  0.32926537  0.17902158    -0.08700
C322        C  0.40980624  0.33803876  0.16944888     0.07400
C323        C  0.44033099  0.29876341  0.16148310    -0.02500
C324        C  0.42147162  0.25217923  0.16117230    -0.07000
C325        C  0.37235960  0.24361615  0.17034624     0.06600
C326        C  0.34238908  0.28256310  0.18080738    -0.02000
Br327      Br  0.27636384  0.27303388  0.19796278    -0.01700
H328        H  0.33661456  0.35882850  0.18394807     0.10500
H329        H  0.44530370  0.22226473  0.15466089     0.08500
Br330      Br  0.50824902  0.30713971  0.15405047    -0.02100
C331        C  0.12788243  0.98486082  0.18402474    -0.08700
C332        C  0.09165091  0.01762611  0.17268566     0.07400
C333        C  0.10478717  0.06464864  0.15955091    -0.02900
C334        C  0.15310409  0.07896167  0.16068724    -0.07000
C335        C  0.18911619  0.04632991  0.17277491     0.06600
C336        C  0.17630485  0.99853141  0.18260652    -0.02000
Br337      Br  0.22412782  0.94980903  0.18811555    -0.01700
H338        H  0.11866817  0.94808683  0.19185074     0.10500
H339        H  0.16278180  0.11522795  0.15097676     0.08500
Br340      Br  0.05854657  0.11004454  0.13756128    -0.02100
C341        C  0.40842194  0.25402404  0.02734348    -0.08700
C342        C  0.44139022  0.22390944  0.00310739     0.07400
C343        C  0.47199195  0.24387683  0.30278326    -0.02500
C344        C  0.47594128  0.29336882  0.29808313    -0.07000
C345        C  0.44519022  0.32336200  0.99038080     0.06600
C346        C  0.41000170  0.30325461  0.02119239    -0.02000
Br347      Br  0.36090164  0.34077985  0.05246933    -0.01700
H348        H  0.38013194  0.23911318  0.04994529     0.10500
H349        H  0.50482497  0.30804459  0.27584757     0.08500
Br350      Br  0.51847962  0.20451505  0.26995137    -0.02100
C351        C  0.15145771  0.94078658  0.31595218    -0.08700
C352        C  0.12398093  0.98089273  0.32970767     0.07400
C353        C  0.15033502  0.02585953  0.01167377    -0.02500
C354        C  0.20025011  0.02683618  0.01132256    -0.07000
C355        C  0.22494996  0.98330696  0.33516189     0.06600
C356        C  0.20168275  0.94133111  0.32006330    -0.02000
Br357      Br  0.23709981  0.88412036  0.30703529    -0.01700
H358        H  0.13370064  0.90836121  0.30394697     0.10500
H359        H  0.21838197  0.06015875  0.01918385     0.08500
Br360      Br  0.11795763  0.08377257  0.02783420    -0.02100
C361        C  0.84050019  0.16627105  0.19638018    -0.08700
C362        C  0.86666457  0.20318094  0.17397972     0.07400
C363        C  0.91494929  0.19446278  0.16032349    -0.02500
C364        C  0.93161886  0.14796127  0.15752863    -0.07000
C365        C  0.90520208  0.11055844  0.17769288     0.06600
C366        C  0.86073300  0.12060163  0.20105934    -0.02000
Br367      Br  0.82667181  0.07432752  0.24016710    -0.01700
H368        H  0.80526679  0.17352340  0.21169608     0.10500
H369        H  0.96697737  0.14160183  0.14291904     0.08500
Br370      Br  0.96340348  0.24335317  0.15727932    -0.02100
C371        C  0.67869874  0.46438818  0.14023008    -0.08700
C372        C  0.69695638  0.42520807  0.16598021     0.07400
C373        C  0.66398033  0.39330056  0.18853119    -0.02500
C374        C  0.61448273  0.40308009  0.18827536    -0.07000
C375        C  0.59631439  0.44273058  0.16298134     0.06600
C376        C  0.62911297  0.47302479  0.13827211    -0.02000
Br377      Br  0.60864845  0.52839921  0.10349086    -0.01700
H378        H  0.70327276  0.48852409  0.12174236     0.10500
H379        H  0.58990974  0.37854189  0.20624723     0.08500
Br380      Br  0.68321068  0.33260464  0.21389501    -0.02100
C381        C  0.91099757  0.11686146  0.35243195    -0.08700
C382        C  0.95082868  0.09835885  0.99443386     0.07400
C383        C  0.98150834  0.13054274  0.96949209    -0.02500
C384        C  0.97226267  0.17977562  0.97064517    -0.07000
C385        C  0.93195329  0.19774612  0.99548445     0.06600
C386        C  0.90062881  0.16575551  0.35181954    -0.02000
Br387      Br  0.83831708  0.18447809  0.37460681    -0.01700
H388        H  0.88622027  0.09251616  0.37035451     0.10500
H389        H  0.99677356  0.20421240  0.95249896     0.08500
Br390      Br  0.03776575  0.10954908  0.93539062    -0.02100
C391        C  0.65468381  0.43186890  0.99270300    -0.08700
C392        C  0.61525111  0.40500426  0.33695494     0.07400
C393        C  0.62115273  0.35673727  0.35050363    -0.02500
C394        C  0.66682483  0.33606855  0.34919171    -0.07000
C395        C  0.70702500  0.36381639  0.33773032     0.06600
C396        C  0.70053840  0.41312913  0.99675175    -0.02000
Br397      Br  0.75173099  0.45938436  0.99681554    -0.01700
H398        H  0.65038451  0.46927506  0.98458579     0.10500
H399        H  0.67119948  0.29854477  0.35765674     0.08500
Br400      Br  0.56873825  0.31745056  0.37096240    -0.02100
C401        C  0.87313612  0.36427829  0.38710660     0.30400
C402        C  0.87097497  0.36736623  0.61474698     0.30400
C403        C  0.90649597  0.40109970  0.36081332    -0.05800
C404        C  0.89382080  0.31827053  0.36016294    -0.06600
C405        C  0.82535128  0.36732579  0.36081862    -0.06400
C406        C  0.90423231  0.40374994  0.64092926    -0.05800
C407        C  0.89294094  0.32150496  0.63967186    -0.06600
C408        C  0.82338354  0.36988730  0.64240521    -0.06400
C409        C  0.95151323  0.41378449  0.62690368    -0.31800
N410        N  0.97894392  0.42387502  0.66604124     0.14700
C411        C  0.95406067  0.41158243  0.37373847    -0.31800
H412        H  0.96997698  0.40792877  0.40978643     0.16600
C413        C  0.91666273  0.28047974  0.62431217    -0.30800
N414        N  0.92458844  0.24927742  0.33168875     0.13400
C415        C  0.91388629  0.27476103  0.37271463    -0.30800
C416        C  0.78013447  0.34972738  0.62942966    -0.31100
N417        N  0.75347232  0.34197301  0.33595233     0.13900
H418        H  0.77043243  0.33656656  0.59346601     0.16500
C419        C  0.78253154  0.34631814  0.37477632    -0.31100
H420        H  0.77270546  0.33364144  0.41106578     0.16500
H421        H  0.91967277  0.26113477  0.40870390     0.16500
H422        H  0.96713523  0.40940799  0.59069963     0.16600
H423        H  0.92637199  0.27059557  0.58724127     0.16500
C424        C  0.86474472  0.37157624  0.44837758     0.30400
C425        C  0.86314535  0.37361778  0.55357481     0.30400
C426        C  0.89981102  0.40626245  0.47439489    -0.05800
C427        C  0.81712509  0.39153495  0.47367796    -0.06600
C428        C  0.86942114  0.32434603  0.47626319    -0.06400
C429        C  0.89904866  0.40728898  0.52695518    -0.05800
C430        C  0.81608287  0.39197911  0.52660980    -0.06600
C431        C  0.86819420  0.32550517  0.52795315    -0.06400
C432        C  0.90846244  0.45482026  0.53944730    -0.31800
N433        N  0.92017889  0.48062048  0.49949737     0.14700
C434        C  0.90926568  0.45332986  0.46042570    -0.31800
H435        H  0.90469084  0.46870636  0.42429977     0.16600
C436        C  0.77125832  0.41039797  0.53944867    -0.30800
N437        N  0.74469466  0.41853466  0.49857160     0.13400
C438        C  0.77349374  0.41129216  0.45891372    -0.30800
C439        C  0.84947350  0.28194659  0.54259331    -0.31100
N440        N  0.84690257  0.25220435  0.50406609     0.13900
H441        H  0.83778798  0.27188693  0.57919398     0.16500
C442        C  0.85191077  0.27980054  0.46379934    -0.31100
H443        H  0.83982302  0.26895001  0.42786253     0.16500
H444        H  0.76227325  0.41903923  0.42202677     0.16500
H445        H  0.90381213  0.47125308  0.57520973     0.16600
H446        H  0.75773665  0.41717634  0.57568862     0.16500
C447        C  0.36775809  0.07045693  0.38967089     0.30400
C448        C  0.37321612  0.06797922  0.61826087     0.30400
C449        C  0.41208266  0.04444855  0.36590599    -0.05800
C450        C  0.32578463  0.04582044  0.36249697    -0.06600
C451        C  0.37510277  0.11811756  0.36228403    -0.06400
C452        C  0.41424930  0.04087242  0.64724836    -0.05800
C453        C  0.33044956  0.04634625  0.64599845    -0.06600
C454        C  0.38116716  0.11727905  0.64261655    -0.06400
C455        C  0.45179250  0.01190111  0.63675868    -0.31800
N456        N  0.48335666  0.01021803  0.67390753     0.14700
C457        C  0.45779214  0.02898179  0.38038938    -0.31800
H458        H  0.47335863  0.03078011  0.41682309     0.16600
C459        C  0.30353053  0.00633378  0.63423051    -0.30800
N460        N  0.27636286  0.98727244  0.33670084     0.13400
C461        C  0.29748313  0.00731789  0.37635191    -0.30800
C462        C  0.41605265  0.14958579  0.62715892    -0.31100
N463        N  0.42715737  0.17420313  0.33552316     0.13900
H464        H  0.43157048  0.15204118  0.59076444     0.16500
C465        C  0.40876351  0.15272451  0.37529117    -0.31100
H466        H  0.42393287  0.15905592  0.41127152     0.16500
H467        H  0.29250164  0.99332633  0.41305810     0.16500
H468        H  0.44584026  0.97971951  0.61672220     0.16600
H469        H  0.30003685  0.99015905  0.59823108     0.16500
C470        C  0.36633806  0.07195259  0.55572556     0.30400
C471        C  0.36033900  0.07261584  0.45057534     0.30400
C472        C  0.40367214  0.04311607  0.52469951    -0.05800
C473        C  0.31669362  0.05718229  0.53166650    -0.06600
C474        C  0.37041739  0.12166634  0.52954216    -0.06400
C475        C  0.39446060  0.03751718  0.47457929    -0.05800
C476        C  0.31389166  0.05816124  0.47873231    -0.06600
C477        C  0.36856511  0.12165203  0.47701631    -0.06400
C478        C  0.40202758  0.98904823  0.46403944    -0.31800
N479        N  0.42418816  0.96869300  0.50276551     0.14700
C480        C  0.42915563  0.00348989  0.53633331    -0.31800
H481        H  0.46524358  0.00953090  0.54945381     0.16600
C482        C  0.26580389  0.06241324  0.46699925    -0.30800
N483        N  0.23925238  0.05985554  0.50851961     0.13400
C484        C  0.26921360  0.06119918  0.54759965    -0.30800
C485        C  0.35173123  0.16688861  0.46436158    -0.31100
N486        N  0.34964120  0.19576415  0.50400492     0.13900
H487        H  0.33945141  0.17828927  0.42857596     0.16500
C488        C  0.35510564  0.16739291  0.54360682    -0.31100
H489        H  0.34632007  0.17976171  0.58027983     0.16500
H490        H  0.25657108  0.06672211  0.58489321     0.16500
H491        H  0.39311967  0.97053704  0.43017788     0.16600
H492        H  0.25075024  0.06806644  0.43090340     0.16500
C493        C  0.57055327  0.86392546  0.38900360     0.30400
C494        C  0.57316722  0.86642408  0.61712602     0.30400
C495        C  0.54456634  0.90497508  0.36325708    -0.05800
C496        C  0.62089403  0.86722447  0.36278380    -0.06600
C497        C  0.55357688  0.81795737  0.36218162    -0.06400
C498        C  0.54563220  0.90577460  0.64507436    -0.05800
C499        C  0.62363633  0.87138964  0.64341396    -0.06600
C500        C  0.55798074  0.81932586  0.64316226    -0.06400
C501        C  0.53429688  0.95212317  0.63254047    -0.31800
N502        N  0.52162151  0.97716563  0.67343815     0.14700
C503        C  0.53292668  0.95080775  0.37880790    -0.31800
H504        H  0.53508810  0.96546144  0.41557285     0.16600
C505        C  0.67159276  0.87386464  0.62948486    -0.30800
N506        N  0.69715451  0.86912135  0.33695545     0.13400
C507        C  0.66865385  0.86471964  0.37704608    -0.30800
C508        C  0.57143324  0.77294512  0.62970896    -0.31100
N509        N  0.56959106  0.74348291  0.33484628     0.13900
H510        H  0.58440348  0.76091127  0.59426633     0.16500
C511        C  0.56668068  0.77132720  0.37468543    -0.31100
H512        H  0.57911922  0.75860642  0.40991365     0.16500
H513        H  0.68243427  0.86098280  0.41384273     0.16500
H514        H  0.53419372  0.96709322  0.59585706     0.16600
H515        H  0.68581873  0.87377043  0.59309850     0.16500
C516        C  0.56446776  0.86776211  0.55535234     0.30400
C517        C  0.56326797  0.86602396  0.45011346     0.30400
C518        C  0.52334463  0.89650148  0.52906547    -0.05800
C519        C  0.60784329  0.88781856  0.52736646    -0.06600
C520        C  0.55320342  0.81926691  0.52973920    -0.06400
C521        C  0.52263813  0.89548441  0.47616593    -0.05800
C522        C  0.60710043  0.88705141  0.47566763    -0.06600
C523        C  0.55275779  0.81845058  0.47695839    -0.06400
C524        C  0.47800150  0.91240764  0.46201255    -0.31800
N525        N  0.45411000  0.92788836  0.50233983     0.14700
C526        C  0.47877209  0.91317685  0.54279538    -0.31800
H527        H  0.46477424  0.91432900  0.57983484     0.16600
C528        C  0.63700384  0.92364907  0.46046385    -0.30800
N529        N  0.66117477  0.94117173  0.49904678     0.13400
C530        C  0.63815364  0.92502920  0.53943755    -0.30800
C531        C  0.51505378  0.78768236  0.46480808    -0.31100
N532        N  0.49701293  0.76593125  0.50445266     0.13900
H533        H  0.49701682  0.78509349  0.42977215     0.16500
C534        C  0.51579085  0.78852359  0.54336084    -0.31100
H535        H  0.49860987  0.78622722  0.57901560     0.16500
H536        H  0.64176484  0.94137540  0.57522510     0.16500
H537        H  0.46371191  0.91441717  0.42508516     0.16600
H538        H  0.64102945  0.93780046  0.42363444     0.16500
C539        C  0.07042414  0.56768959  0.61251872     0.30400
C540        C  0.07247021  0.56595641  0.38476269     0.30400
C541        C  0.03518307  0.53313406  0.63916658    -0.05800
C542        C  0.11763945  0.54801162  0.63741934    -0.06600
C543        C  0.06564261  0.61533632  0.64016935    -0.06400
C544        C  0.03762067  0.53125665  0.35852097    -0.05800
C545        C  0.11992486  0.54801544  0.35818885    -0.06600
C546        C  0.06676865  0.61336641  0.35841164    -0.06400
C547        C  0.02896340  0.48395433  0.37212678    -0.31800
N548        N  0.01568904  0.45883180  0.66558664     0.14700
C549        C  0.02612422  0.48562958  0.62601621    -0.31800
H550        H  0.03105834  0.46953921  0.59016551     0.16600
C551        C  0.16384137  0.52903846  0.37178684    -0.30800
N552        N  0.18855059  0.51878774  0.66167482     0.13400
C553        C  0.16055197  0.52734040  0.62197662    -0.30800
C554        C  0.08440766  0.65719699  0.37289826    -0.31100
N555        N  0.08692039  0.68770417  0.66796600     0.13900
H556        H  0.09489687  0.66802375  0.40959280     0.16500
C557        C  0.08160876  0.66053288  0.62732827    -0.31100
H558        H  0.09093137  0.67309024  0.59088970     0.16500
H559        H  0.17169586  0.51953692  0.58463057     0.16500
H560        H  0.03420849  0.46827969  0.40802080     0.16600
H561        H  0.17583272  0.52186188  0.40844198     0.16500
C562        C  0.06464908  0.57264149  0.44608085     0.30400
C563        C  0.06370259  0.57383492  0.55120575     0.30400
C564        C  0.03224579  0.53533495  0.47247808    -0.05800
C565        C  0.11260660  0.57159727  0.47320467    -0.06600
C566        C  0.04148891  0.61800638  0.47157316    -0.06400
C567        C  0.03176470  0.53609729  0.52524665    -0.05800
C568        C  0.11212016  0.57221392  0.52491807    -0.06600
C569        C  0.04143512  0.61858098  0.52443976    -0.06400
C570        C  0.98414998  0.52615970  0.53841614    -0.31800
N571        N  0.95774019  0.51471916  0.49895396     0.14700
C572        C  0.98482253  0.52465617  0.45926863    -0.31800
H573        H  0.96892189  0.52862885  0.42327111     0.16600
C574        C  0.15410132  0.59511834  0.53867617    -0.30800
N575        N  0.18310536  0.60137324  0.49959749     0.13400
C576        C  0.15468777  0.59447394  0.46011440    -0.30800
C577        C  0.01723597  0.65952371  0.53791974    -0.31100
N578        N  0.00529696  0.68510521  0.49756136     0.13900
H579        H  0.00944710  0.67115506  0.57440453     0.16500
C580        C  0.01669005  0.65874556  0.45722741    -0.31100
H581        H  0.00842800  0.66972413  0.42020884     0.16500
H582        H  0.16402468  0.60674648  0.42367928     0.16500
H583        H  0.96773365  0.53151313  0.57413425     0.16600
H584        H  0.16356294  0.60705264  0.57533993     0.16500
O585        O  0.91895304  0.93601855  0.37632836    -0.71400
O586        O  0.04755950  0.98418164  0.37001040    -0.71600
O587        O  0.95912130  0.02459861  0.37065739    -0.71400
O588        O  0.00821805  0.89865586  0.37712243    -0.71500
O589        O  0.99590035  0.89253134  0.63564512    -0.71400
O590        O  0.97999811  0.02742677  0.62556777    -0.71400
O591        O  0.05516239  0.96616167  0.62901041    -0.71400
O592        O  0.91929706  0.95138096  0.63028843    -0.71600
V593        V  0.98304656  0.96094875  0.37257757     1.35200
V594        V  0.98736110  0.95974261  0.63099365     1.35200
C595        C  0.89864672  0.93906009  0.66982474     0.77900
C596        C  0.07653512  0.98027736  0.66723773     0.77900
C597        C  0.96147326  0.04687810  0.33025733     0.77800
C598        C  0.00760217  0.87230174  0.33961187     0.77800
O599        O  0.92799863  0.03843314  0.54559035    -0.71400
O600        O  0.97488901  0.91128614  0.53940130    -0.71600
O601        O  0.01684286  0.99794348  0.54471868    -0.71400
O602        O  0.88731323  0.95349957  0.53779782    -0.71500
O603        O  0.88830224  0.96956995  0.45964037    -0.71400
O604        O  0.02190338  0.99311981  0.46525778    -0.71400
O605        O  0.96666696  0.91275942  0.46020129    -0.71400
O606        O  0.94170873  0.04695858  0.46731532    -0.71600
V607        V  0.95214946  0.97534556  0.54062962     1.35200
V608        V  0.95493902  0.98015649  0.46433162     1.35200
C609        C  0.92633132  0.06415973  0.50765000     0.77900
C610        C  0.97612432  0.88926410  0.49880803     0.77900
C611        C  0.04158048  0.00250685  0.50590265     0.77800
C612        C  0.86497562  0.95839411  0.49758225     0.77800
O613        O  0.54213451  0.43043755  0.37253025    -0.71400
O614        O  0.41859799  0.48770861  0.36682229    -0.71600
O615        O  0.45322688  0.39833211  0.36564325    -0.71400
O616        O  0.50947689  0.52210443  0.37235088    -0.71500
O617        O  0.50004901  0.52951185  0.62517604    -0.71400
O618        O  0.47067714  0.39756872  0.61899906    -0.71400
O619        O  0.41720430  0.47696732  0.61971158    -0.71400
O620        O  0.55089571  0.44772721  0.62629480    -0.71600
V621        V  0.48106440  0.46004802  0.36820739     1.35200
V622        V  0.48439899  0.46339944  0.62361805     1.35200
C623        C  0.56644797  0.42984143  0.66592344     0.77900
C624        C  0.39382571  0.48792902  0.65813714     0.77900
C625        C  0.45616363  0.37492810  0.32590004     0.77800
C626        C  0.51412142  0.54651242  0.33344624     0.77800
O627        O  0.43531941  0.40808032  0.45985412    -0.71400
O628        O  0.45913456  0.54236795  0.45485953    -0.71600
O629        O  0.51611560  0.46413367  0.45601693    -0.71400
O630        O  0.38113168  0.48840774  0.45907357    -0.71500
O631        O  0.38895697  0.50579306  0.53652522    -0.71400
O632        O  0.51420566  0.45086747  0.53430168    -0.71400
O633        O  0.47696044  0.53994579  0.53254439    -0.71400
O634        O  0.42253386  0.41512631  0.53821307    -0.71600
V635        V  0.44826334  0.47529099  0.45837034     1.35200
V636        V  0.45071391  0.47744422  0.53434507     1.35200
C637        C  0.42102138  0.38952418  0.49984331     0.77900
C638        C  0.47249695  0.56386566  0.49341786     0.77900
C639        C  0.53847519  0.45277663  0.49477593     0.77800
C640        C  0.36393648  0.50651368  0.49806743     0.77800
C641        C  0.23163766  0.52938515  0.48959060    -0.08700
C642        C  0.22912040  0.57851176  0.50042646     0.07400
C643        C  0.27095719  0.60306178  0.51373094    -0.02500
C644        C  0.31491319  0.57872472  0.51363621    -0.07000
C645        C  0.31741583  0.53051972  0.49870754     0.06600
C646        C  0.27541302  0.50598372  0.48622224    -0.02000
Br647      Br  0.27567842  0.44044527  0.46563902    -0.01700
H648        H  0.19907776  0.50908534  0.48386789     0.10500
H649        H  0.34727665  0.59761120  0.52423987     0.08500
Br650      Br  0.26871779  0.66897281  0.53253114    -0.02100
C651        C  0.02919320  0.76604968  0.52346975    -0.08700
C652        C  0.99711391  0.73611152  0.49786892     0.07400
C653        C  0.95919128  0.75715815  0.47159142    -0.02500
C654        C  0.95374401  0.80708005  0.47145903    -0.07000
C655        C  0.98570295  0.83699885  0.49706472     0.06600
C656        C  0.02400232  0.81588489  0.52304706    -0.02000
Br657      Br  0.07230023  0.85327203  0.55551352    -0.01700
H658        H  0.05916274  0.75050165  0.54306448     0.10500
H659        H  0.92329204  0.82264186  0.45293105     0.08500
Br660      Br  0.91196061  0.71880568  0.43903531    -0.02100
C661        C  0.25882456  0.46887368  0.64112686    -0.08700
C662        C  0.23993663  0.51148733  0.65996139     0.07400
C663        C  0.27471937  0.54509174  0.35096954    -0.02500
C664        C  0.32440599  0.53646333  0.34979055    -0.07000
C665        C  0.34098803  0.49653632  0.65663342     0.06600
C666        C  0.30869839  0.46137840  0.63902848    -0.02000
Br667      Br  0.33036208  0.40141144  0.61385164    -0.01700
H668        H  0.23459507  0.44124055  0.62832325     0.10500
H669        H  0.34864047  0.56206084  0.36655597     0.08500
Br670      Br  0.25415643  0.60565763  0.37586186    -0.02100
C671        C  0.09540651  0.77137059  0.69295334    -0.08700
C672        C  0.06732656  0.73291894  0.33666607     0.07400
C673        C  0.01843252  0.74048377  0.32487367    -0.02500
C674        C  0.00078736  0.78665576  0.32283116    -0.07000
C675        C  0.02772374  0.82438442  0.34167570     0.06600
C676        C  0.07596977  0.81704874  0.69914732    -0.02000
Br677      Br  0.11193863  0.86231515  0.73734796    -0.01700
H678        H  0.13123545  0.76367713  0.70614561     0.10500
H679        H  0.96475432  0.79262766  0.30953381     0.08500
Br680      Br  0.97128072  0.69027824  0.32240735    -0.02100
C681        C  0.52536067  0.68509712  0.51955390    -0.08700
C682        C  0.48835918  0.71548314  0.50409195     0.07400
C683        C  0.44684364  0.69578602  0.48291485    -0.02500
C684        C  0.44278807  0.64606921  0.47776024    -0.07000
C685        C  0.47977225  0.61581081  0.49403629     0.06600
C686        C  0.52126657  0.63581053  0.51484070    -0.02000
Br687      Br  0.57478182  0.59775413  0.53421271    -0.01700
H688        H  0.55831073  0.70004092  0.53405617     0.10500
H689        H  0.41030472  0.63098582  0.46223733     0.08500
Br690      Br  0.39484999  0.73575078  0.46257575    -0.02100
C691        C  0.73375886  0.98685681  0.47954794    -0.08700
C692        C  0.71251523  0.94490913  0.49697552     0.07400
C693        C  0.74224502  0.90504837  0.50754643    -0.02500
C694        C  0.79178209  0.91093934  0.51020203    -0.07000
C695        C  0.81283148  0.95359780  0.49506289     0.06600
C696        C  0.78373214  0.99046895  0.47598335    -0.02000
Br697      Br  0.80988473  0.04525047  0.44284460    -0.01700
H698        H  0.71134240  0.01600254  0.46715432     0.10500
H699        H  0.81422070  0.88105993  0.52071804     0.08500
Br700      Br  0.71961262  0.84016157  0.50925102    -0.02100
C701        C  0.59159849  0.65870518  0.32876995    -0.08700
C702        C  0.55655089  0.69394323  0.33442736     0.07400
C703        C  0.50887150  0.68242332  0.67086612    -0.02500
C704        C  0.49508155  0.63438039  0.67159607    -0.07000
C705        C  0.53017568  0.59669053  0.33513322     0.06600
C706        C  0.57868121  0.61027363  0.32830472    -0.02000
Br707      Br  0.62828906  0.56502981  0.31457844    -0.01700
H708        H  0.62880981  0.66900269  0.32378382     0.10500
H709        H  0.45729297  0.62530532  0.67416875     0.08500
Br710      Br  0.45934801  0.72985312  0.67069376    -0.02100
C711        C  0.78610666  0.86207509  0.68665939    -0.08700
C712        C  0.74988595  0.89235667  0.66929037     0.07400
C713        C  0.75761874  0.93402183  0.32965548    -0.02500
C714        C  0.80564741  0.94945886  0.32973229    -0.07000
C715        C  0.84769436  0.92261575  0.66993761     0.06600
C716        C  0.83455618  0.87657313  0.68630528    -0.02000
Br717      Br  0.88206053  0.83053088  0.70345396    -0.01700
H718        H  0.77674388  0.82659767  0.69932426     0.10500
H719        H  0.81373867  0.98677829  0.32319139     0.08500
Br720      Br  0.70838781  0.98086401  0.32062030    -0.02100
C721        C  0.35374473  0.33046050  0.51048377    -0.08700
C722        C  0.40282297  0.33952198  0.50168259     0.07400
C723        C  0.43357940  0.30049821  0.49341324    -0.02500
C724        C  0.41537780  0.25373478  0.49405638    -0.07000
C725        C  0.36635849  0.24464954  0.50284326     0.06600
C726        C  0.33547186  0.28350916  0.51106217    -0.02000
Br727      Br  0.26822485  0.27363065  0.52168755    -0.01700
H728        H  0.32930583  0.36001272  0.51561848     0.10500
H729        H  0.43961906  0.22404962  0.48804079     0.08500
Br730      Br  0.50101923  0.30951195  0.48309860    -0.02100
C731        C  0.12753747  0.98594489  0.52181034    -0.08700
C732        C  0.09203166  0.01847110  0.50789134     0.07400
C733        C  0.10568240  0.06506071  0.49387708    -0.02900
C734        C  0.15402875  0.07903659  0.49581647    -0.07000
C735        C  0.18942574  0.04655604  0.51013114     0.06600
C736        C  0.17599243  0.99925284  0.52152197    -0.02000
Br737      Br  0.22303147  0.95028017  0.53031256    -0.01700
H738        H  0.11777544  0.94954040  0.53077430     0.10500
H739        H  0.16424567  0.11488529  0.48508448     0.08500
Br740      Br  0.05994394  0.11044251  0.47063228    -0.02100
C741        C  0.40357708  0.25540598  0.35733048    -0.08700
C742        C  0.43592699  0.22455380  0.33321855     0.07400
C743        C  0.47225898  0.24621520  0.62858513    -0.02500
C744        C  0.47385733  0.29589754  0.62438549    -0.07000
C745        C  0.44522548  0.32391610  0.32460521     0.06600
C746        C  0.40784830  0.30464596  0.35313152    -0.02000
Br747      Br  0.35939618  0.34361030  0.38357454    -0.01700
H748        H  0.37391537  0.24105590  0.37854008     0.10500
H749        H  0.50003266  0.31185274  0.59971559     0.08500
Br750      Br  0.51633773  0.20908954  0.58986869    -0.02100
C751        C  0.15627780  0.94247216  0.65586963    -0.08700
C752        C  0.12909341  0.98327523  0.66790205     0.07400
C753        C  0.14750223  0.02288306  0.34414613    -0.02500
C754        C  0.19739889  0.02415855  0.34558727    -0.07000
C755        C  0.22985364  0.98508045  0.67391647     0.06600
C756        C  0.20643124  0.94274348  0.66039399    -0.02000
Br757      Br  0.24175132  0.88524253  0.64837723    -0.01700
H758        H  0.13835742  0.90997392  0.64434843     0.10500
H759        H  0.21506323  0.05749391  0.35451676     0.08500
Br760      Br  0.11374425  0.08029197  0.35938822    -0.02100
C761        C  0.84029233  0.16766650  0.52738548    -0.08700
C762        C  0.86706290  0.20514389  0.50701200     0.07400
C763        C  0.91580956  0.19688536  0.49462563    -0.02500
C764        C  0.93294016  0.15041610  0.49185839    -0.07000
C765        C  0.90587923  0.11250964  0.51018751     0.06600
C766        C  0.86048290  0.12200374  0.53171545    -0.02000
Br767      Br  0.82525583  0.07500913  0.56850926    -0.01700
H768        H  0.80447688  0.17444440  0.54144425     0.10500
H769        H  0.96894563  0.14443276  0.47880120     0.08500
Br770      Br  0.96371077  0.24641542  0.49233104    -0.02100
C771        C  0.67425231  0.46521991  0.47072300    -0.08700
C772        C  0.69307005  0.42664146  0.49720663     0.07400
C773        C  0.66015253  0.39489046  0.52005345    -0.02500
C774        C  0.61043989  0.40430117  0.51983199    -0.07000
C775        C  0.59162687  0.44349466  0.49417492     0.06600
C776        C  0.62439507  0.47350535  0.46877176    -0.02000
Br777      Br  0.60375036  0.52819984  0.43309739    -0.01700
H778        H  0.69856842  0.48925433  0.45173909     0.10500
H779        H  0.58618261  0.37975932  0.53823677     0.08500
Br780      Br  0.68009819  0.33460352  0.54569103    -0.02100
C781        C  0.91510822  0.11972121  0.68446383    -0.08700
C782        C  0.95144735  0.09883139  0.32792133     0.07400
C783        C  0.98142979  0.13094258  0.30194394    -0.02500
C784        C  0.97266035  0.18028020  0.30388597    -0.07000
C785        C  0.93311464  0.19842120  0.32993895     0.06600
C786        C  0.90348610  0.16824258  0.68399425    -0.02000
Br787      Br  0.84127092  0.18514664  0.70841480    -0.01700
H788        H  0.89107954  0.09479564  0.70263252     0.10500
H789        H  0.99674833  0.20463858  0.28504462     0.08500
Br790      Br  0.03559108  0.10978033  0.26449083    -0.02100
C791        C  0.65545961  0.43279796  0.32704888    -0.08700
C792        C  0.61362540  0.40712586  0.66816710     0.07400
C793        C  0.61924802  0.35824965  0.67912041    -0.02500
C794        C  0.66496736  0.33781019  0.67873933    -0.07000
C795        C  0.70538954  0.36615038  0.67040901     0.06600
C796        C  0.70124191  0.41369908  0.33022704    -0.02000
Br797      Br  0.75267565  0.45975903  0.32970595    -0.01700
H798        H  0.65136603  0.47019160  0.31908194     0.10500
H799        H  0.66918040  0.29992237  0.68537735     0.08500
Br800      Br  0.56640499  0.31775003  0.69501452    -0.02100
C801        C  0.87211541  0.36578643  0.72002909     0.30400
C802        C  0.87250133  0.36511242  0.94814087     0.30400
C803        C  0.90505196  0.40282593  0.69371734    -0.05800
C804        C  0.89260252  0.32024384  0.69254104    -0.06600
C805        C  0.82392007  0.36915903  0.69416735    -0.06400
C806        C  0.90619621  0.40101740  0.97440775    -0.05800
C807        C  0.89382993  0.31883164  0.97298956    -0.06600
C808        C  0.82486012  0.36793711  0.97591982    -0.06400
C809        C  0.95346499  0.41114129  0.96026730    -0.31800
N810        N  0.98080679  0.42194165  0.99925756     0.14700
C811        C  0.95285377  0.41253661  0.70606452    -0.31800
H812        H  0.96942274  0.40767517  0.74163459     0.16600
C813        C  0.91573779  0.27680078  0.95762001    -0.30800
N814        N  0.92490071  0.25228716  0.66368160     0.13400
C815        C  0.91373429  0.27727937  0.70487301    -0.30800
C816        C  0.78154137  0.34773110  0.96299185    -0.31100
N817        N  0.75181151  0.34445020  0.66915672     0.13900
H818        H  0.77175845  0.33503457  0.92687532     0.16500
C819        C  0.78078860  0.34875188  0.70814657    -0.31100
H820        H  0.77071730  0.33637793  0.74447587     0.16500
H821        H  0.92004051  0.26382296  0.74083011     0.16500
H822        H  0.96909565  0.40657815  0.92408991     0.16600
H823        H  0.92455325  0.26624673  0.92053337     0.16500
C824        C  0.86540203  0.37198121  0.78159193     0.30400
C825        C  0.86485573  0.37225893  0.88692891     0.30400
C826        C  0.90125473  0.40577358  0.80782107    -0.05800
C827        C  0.81866931  0.39211377  0.80765017    -0.06600
C828        C  0.86963140  0.32421558  0.80864836    -0.06400
C829        C  0.90103842  0.40598445  0.86049124    -0.05800
C830        C  0.81796713  0.39154905  0.86056712    -0.06600
C831        C  0.86902153  0.32453988  0.86044417    -0.06400
C832        C  0.91095336  0.45335214  0.87359912    -0.31800
N833        N  0.92202802  0.47974049  0.83388098     0.14700
C834        C  0.91079198  0.45302611  0.79452251    -0.31800
H835        H  0.90563606  0.46904470  0.75879258     0.16600
C836        C  0.77354954  0.41018434  0.87389279    -0.30800
N837        N  0.74726842  0.41983999  0.83325060     0.13400
C838        C  0.77573913  0.41312882  0.79336249    -0.30800
C839        C  0.84921652  0.28131074  0.87447545    -0.31100
N840        N  0.84545036  0.25223400  0.83551544     0.13900
H841        H  0.83748822  0.27104289  0.91099420     0.16500
C842        C  0.85083577  0.28033973  0.79564622    -0.31100
H843        H  0.83851603  0.27030725  0.75952637     0.16500
H844        H  0.76476163  0.42208849  0.75665434     0.16500
H845        H  0.90657464  0.46941059  0.90957096     0.16600
H846        H  0.76002700  0.41596672  0.91017466     0.16500
C847        C  0.37342243  0.07270251  0.72384306     0.30400
C848        C  0.37285091  0.07020291  0.95103767     0.30400
C849        C  0.41647753  0.04611807  0.69946266    -0.05800
C850        C  0.33063584  0.04829868  0.69795532    -0.06600
C851        C  0.38133586  0.11990897  0.69538833    -0.06400
C852        C  0.41461408  0.04258377  0.97719597    -0.05800
C853        C  0.32940025  0.04730794  0.97659401    -0.06600
C854        C  0.38112298  0.11814553  0.97770398    -0.06400
C855        C  0.46004701  0.02752214  0.96325748    -0.31800
N856        N  0.48517446  0.01428571  0.00382324     0.14700
C857        C  0.46207604  0.03092413  0.71365154    -0.31800
H858        H  0.47746593  0.03256706  0.75020220     0.16600
C859        C  0.30168863  0.00873227  0.96194214    -0.30800
N860        N  0.28122573  0.98896665  0.67449143     0.13400
C861        C  0.30300277  0.00988526  0.71326580    -0.30800
C862        C  0.41845617  0.14928610  0.96597990    -0.31100
N863        N  0.43362339  0.17451138  0.66495642     0.13900
H864        H  0.43783474  0.15066632  0.93153965     0.16500
C865        C  0.41770787  0.15275888  0.70570633    -0.31100
H866        H  0.43632615  0.15740951  0.74022753     0.16500
H867        H  0.29847382  0.99725696  0.75062745     0.16500
H868        H  0.47403129  0.02592168  0.92605609     0.16600
H869        H  0.29818464  0.99508238  0.92486275     0.16500
C870        C  0.36641874  0.07351289  0.88996414     0.30400
C871        C  0.36652156  0.07445288  0.78504231     0.30400
C872        C  0.39322902  0.03324731  0.86286836    -0.05800
C873        C  0.31621954  0.06977253  0.86417188    -0.06600
C874        C  0.38270089  0.12073525  0.86405315    -0.06400
C875        C  0.39344950  0.03363386  0.81128846    -0.05800
C876        C  0.31616022  0.07036017  0.81146834    -0.06600
C877        C  0.38304958  0.12085410  0.81136937    -0.06400
C878        C  0.40535812  0.98745020  0.79673041    -0.31800
N879        N  0.41647793  0.96075033  0.83664592     0.14700
C880        C  0.40438917  0.98690865  0.87675317    -0.31800
H881        H  0.40324918  0.97246739  0.91361601     0.16600
C882        C  0.26824285  0.07087654  0.79772521    -0.30800
N883        N  0.24016471  0.06717087  0.83851042     0.13400
C884        C  0.26847533  0.06984801  0.87883171    -0.30800
C885        C  0.36958943  0.16724854  0.79840525    -0.31100
N886        N  0.36684835  0.19593901  0.83764924     0.13900
H887        H  0.35486748  0.17849513  0.76368807     0.16500
C888        C  0.36916196  0.16754898  0.87706704    -0.31100
H889        H  0.35570960  0.17988090  0.91222030     0.16500
H890        H  0.25448180  0.07138466  0.91604610     0.16500
H891        H  0.40519621  0.97344282  0.75960302     0.16600
H892        H  0.25444342  0.07326282  0.76116429     0.16500
C893        C  0.57315038  0.86525356  0.72270150     0.30400
C894        C  0.57196242  0.86634078  0.95017499     0.30400
C895        C  0.54591620  0.90521318  0.69680815    -0.05800
C896        C  0.62382842  0.87011678  0.69628066    -0.06600
C897        C  0.55727931  0.81888665  0.69585306    -0.06400
C898        C  0.54597359  0.90725937  0.97722149    -0.05800
C899        C  0.62227449  0.86863901  0.97694002    -0.06600
C900        C  0.55418217  0.81984401  0.97588266    -0.06400
C901        C  0.53442161  0.95350898  0.96328416    -0.31800
N902        N  0.52244828  0.97971935  0.00343916     0.14700
C903        C  0.53421336  0.95089899  0.71247198    -0.31800
H904        H  0.53574989  0.96535398  0.74932924     0.16600
C905        C  0.67042359  0.86728589  0.96369969    -0.30800
N906        N  0.70014345  0.87682799  0.66955059     0.13400
C907        C  0.67216097  0.87035203  0.70993885    -0.30800
C908        C  0.56642482  0.77298800  0.96243023    -0.31100
N909        N  0.57224139  0.74416447  0.66887530     0.13900
H910        H  0.57975046  0.76089746  0.92721215     0.16500
C911        C  0.56932984  0.77210008  0.70874461    -0.31100
H912        H  0.58017715  0.75906943  0.74441931     0.16500
H913        H  0.68659666  0.86681312  0.74653034     0.16500
H914        H  0.53507108  0.96786011  0.92638882     0.16600
H915        H  0.68488851  0.86636481  0.92740598     0.16500
C916        C  0.56453064  0.86853391  0.88878304     0.30400
C917        C  0.56435246  0.86763304  0.78385200     0.30400
C918        C  0.52405100  0.89850723  0.86293641    -0.05800
C919        C  0.60887098  0.88773225  0.86161769    -0.06600
C920        C  0.55221897  0.82067834  0.86275410    -0.06400
C921        C  0.52371800  0.89774792  0.80996440    -0.05800
C922        C  0.60812081  0.88778985  0.80996227    -0.06600
C923        C  0.55275179  0.82009800  0.81006431    -0.06400
C924        C  0.47767604  0.91124191  0.79634130    -0.31800
N925        N  0.45220458  0.92464656  0.83681557     0.14700
C926        C  0.47834798  0.91278765  0.87715292    -0.31800
H927        H  0.46474610  0.91459441  0.91449284     0.16600
C928        C  0.63794203  0.92458210  0.79546070    -0.30800
N929        N  0.66314901  0.94045737  0.83404273     0.13400
C930        C  0.64096195  0.92341689  0.87455071    -0.30800
C931        C  0.51465035  0.79026413  0.79696257    -0.31100
N932        N  0.49493223  0.76917730  0.83617668     0.13900
H933        H  0.49756317  0.78800254  0.76138398     0.16500
C934        C  0.51319353  0.79163895  0.87538585    -0.31100
H935        H  0.49488617  0.79029282  0.91053171     0.16500
H936        H  0.64704834  0.93798712  0.91092566     0.16500
H937        H  0.46352637  0.91179966  0.75927489     0.16600
H938        H  0.64120400  0.93997463  0.75909355     0.16500
C939        C  0.07271751  0.56660111  0.94570135     0.30400
C940        C  0.07193406  0.56657281  0.71777461     0.30400
C941        C  0.03742270  0.53171356  0.97223588    -0.05800
C942        C  0.11997701  0.54702875  0.97061189    -0.06600
C943        C  0.06809421  0.61405051  0.97364436    -0.06400
C944        C  0.03589486  0.53280924  0.69183025    -0.05800
C945        C  0.11856805  0.54770508  0.69035065    -0.06600
C946        C  0.06690278  0.61441518  0.69195023    -0.06400
C947        C  0.02703790  0.48539675  0.70498246    -0.31800
N948        N  0.01725830  0.45732254  0.99844665     0.14700
C949        C  0.02757810  0.48430277  0.95885665    -0.31800
H950        H  0.03167147  0.46849298  0.92275580     0.16600
C951        C  0.16237454  0.52763025  0.70297466    -0.30800
N952        N  0.19129409  0.51905843  0.99509307     0.13400
C953        C  0.16321791  0.52699069  0.95530962    -0.30800
C954        C  0.08497506  0.65810410  0.70650384    -0.31100
N955        N  0.09085361  0.68589250  0.00192922     0.13900
H956        H  0.09634481  0.66849020  0.74305578     0.16500
C957        C  0.08586218  0.65869294  0.96128257    -0.31100
H958        H  0.09632026  0.67089075  0.92501221     0.16500
H959        H  0.17449586  0.51905834  0.91803959     0.16500
H960        H  0.03258591  0.46930840  0.74063277     0.16600
H961        H  0.17505806  0.51987971  0.73941998     0.16500
C962        C  0.06514440  0.57292146  0.77915680     0.30400
C963        C  0.06571881  0.57362937  0.88434570     0.30400
C964        C  0.03248034  0.53609655  0.80587589    -0.05800
C965        C  0.11352506  0.57067957  0.80551114    -0.06600
C966        C  0.04314447  0.61861770  0.80510040    -0.06400
C967        C  0.03271359  0.53660934  0.85859536    -0.05800
C968        C  0.11378997  0.57109745  0.85728078    -0.06600
C969        C  0.04414654  0.61913439  0.85793988    -0.06400
C970        C  0.98524473  0.52665240  0.87238360    -0.31800
N971        N  0.95836852  0.51515490  0.83324226     0.14700
C972        C  0.98485322  0.52574495  0.79330802    -0.31800
H973        H  0.96842484  0.53010874  0.75761945     0.16600
C974        C  0.15652997  0.59297227  0.87036104    -0.30800
N975        N  0.18495749  0.59890868  0.83075519     0.13400
C976        C  0.15616038  0.59218592  0.79163200    -0.30800
C977        C  0.02171328  0.66105477  0.87165997    -0.31100
N978        N  0.00868377  0.68649987  0.83162844     0.13900
H979        H  0.01587169  0.67351277  0.90798807     0.16500
C980        C  0.01848643  0.65972504  0.79117412    -0.31100
H981        H  0.00904554  0.67049834  0.75439166     0.16500
H982        H  0.16565163  0.60402285  0.75506194     0.16500
H983        H  0.96927662  0.53175022  0.90835109     0.16600
H984        H  0.16671450  0.60491252  0.90680526     0.16500
O985        O  0.92319101  0.94044931  0.70900671    -0.71400
O986        O  0.05180539  0.98864329  0.70555528    -0.71600
O987        O  0.96344886  0.02896792  0.70342319    -0.71400
O988        O  0.01266342  0.90314716  0.71285227    -0.71500
O989        O  0.99748906  0.88989050  0.96676838    -0.71400
O990        O  0.97267319  0.02316244  0.95878709    -0.71400
O991        O  0.05158717  0.96696663  0.96041334    -0.71400
O992        O  0.91694360  0.94304431  0.96313520    -0.71600
V993        V  0.98737593  0.96542821  0.70681370     1.35200
V994        V  0.98435997  0.95622466  0.96337701     1.35200
C995        C  0.89651737  0.93189976  0.00317285     0.77900
C996        C  0.07340881  0.98032502  0.99862160     0.77900
C997        C  0.96710353  0.05105964  0.66301078     0.77800
C998        C  0.01192614  0.87615387  0.67582230     0.77800
O999        O  0.92873673  0.04047004  0.87684218    -0.71400
O1000       O  0.97564503  0.91338686  0.87321046    -0.71600
O1001       O  0.01796976  0.00068924  0.87757119    -0.71400
O1002       O  0.88832109  0.95570437  0.86990154    -0.71500
O1003       O  0.88986012  0.97153583  0.79170260    -0.71400
O1004       O  0.02388622  0.99291297  0.79849082    -0.71400
O1005       O  0.96695753  0.91329706  0.79407278    -0.71400
O1006       O  0.94410626  0.04806981  0.79884400    -0.71600
V1007       V  0.95313416  0.97756021  0.87322190     1.35200
V1008       V  0.95659276  0.98107335  0.79697612     1.35200
C1009       C  0.92742469  0.06552245  0.83850816     0.77900
C1010       C  0.97606555  0.89041506  0.83316434     0.77900
C1011       C  0.04332046  0.00376061  0.83889336     0.77800
C1012       C  0.86627733  0.96041312  0.82944157     0.77800
O1013       O  0.54020179  0.43158076  0.70374156    -0.71400
O1014       O  0.41659157  0.48907744  0.69831951    -0.71600
O1015       O  0.45123092  0.39952054  0.69639548    -0.71400
O1016       O  0.50821149  0.52323353  0.70423706    -0.71500
O1017       O  0.50236582  0.52708699  0.95844524    -0.71400
O1018       O  0.47140643  0.39520179  0.95319066    -0.71400
O1019       O  0.41913997  0.47546261  0.95300054    -0.71400
O1020       O  0.55221498  0.44448631  0.96004046    -0.71600
V1021       V  0.47921082  0.46129505  0.69964819     1.35200
V1022       V  0.48603258  0.46102085  0.95718814     1.35200
C1023       C  0.56746837  0.42650437  0.99973388     0.77900
C1024       C  0.39601834  0.48697314  0.99140670     0.77900
C1025       C  0.45480402  0.37632573  0.65649673     0.77800
C1026       C  0.51251455  0.54808677  0.66555225     0.77800
O1027       O  0.44102587  0.41122294  0.79285641    -0.71400
O1028       O  0.46321835  0.54543942  0.78746618    -0.71600
O1029       O  0.52075524  0.46779455  0.78893899    -0.71400
O1030       O  0.38575069  0.49088266  0.79190509    -0.71500
O1031       O  0.39334257  0.50912156  0.86923917    -0.71400
O1032       O  0.51844221  0.45471848  0.86738081    -0.71400
O1033       O  0.48127211  0.54351069  0.86515902    -0.71400
O1034       O  0.42756767  0.41862137  0.87111659    -0.71600
V1035       V  0.45296124  0.47846578  0.79116316     1.35200
V1036       V  0.45518335  0.48104337  0.86718690     1.35200
C1037       C  0.42718127  0.39266511  0.83299325     0.77900
C1038       C  0.47655457  0.56711210  0.82588063     0.77900
C1039       C  0.54271552  0.45642074  0.82791852     0.77800
C1040       C  0.36830664  0.50906450  0.83075277     0.77800
C1041       C  0.23536751  0.52809476  0.82163731    -0.08700
C1042       C  0.23163283  0.57745171  0.83086917     0.07400
C1043       C  0.27284454  0.60353232  0.84310075    -0.02500
C1044       C  0.31752429  0.58058615  0.84330342    -0.07000
C1045       C  0.32117679  0.53181007  0.83108448     0.06600
C1046       C  0.27972413  0.50543978  0.82075282    -0.02000
Br1047     Br  0.28169524  0.43805403  0.80837832    -0.01700
H1048       H  0.20329113  0.50695607  0.81604083     0.10500
H1049       H  0.34943800  0.60080925  0.85264848     0.08500
Br1050     Br  0.26864113  0.66961346  0.86077173    -0.02100
C1051       C  0.03389917  0.76841125  0.85284684    -0.08700
C1052       C  0.99957783  0.73739758  0.83214846     0.07400
C1053       C  0.95720188  0.75709166  0.81282188    -0.02500
C1054       C  0.95037695  0.80691751  0.81316064    -0.07000
C1055       C  0.98528806  0.83801581  0.83252333     0.06600
C1056       C  0.02699620  0.81810065  0.85341371    -0.02000
Br1057     Br  0.07620490  0.85718479  0.88204024    -0.01700
H1058       H  0.06648412  0.75375467  0.86837112     0.10500
H1059       H  0.91683123  0.82142574  0.80013796     0.08500
Br1060     Br  0.90639219  0.71683650  0.78968710    -0.02100
C1061       C  0.26132826  0.47021905  0.97166033    -0.08700
C1062       C  0.24262247  0.51154242  0.99352264     0.07400
C1063       C  0.27216921  0.54773807  0.67499079    -0.02500
C1064       C  0.32201427  0.53964275  0.67450704    -0.07000
C1065       C  0.34342087  0.49600570  0.99000926     0.06600
C1066       C  0.31108505  0.46232496  0.96977700    -0.02000
Br1067     Br  0.33244317  0.40316834  0.94258004    -0.01700
H1068       H  0.23701623  0.44371138  0.95667229     0.10500
H1069       H  0.34608994  0.56754938  0.68704415     0.08500
Br1070     Br  0.25002288  0.61034099  0.69212316    -0.02100
C1071       C  0.09873812  0.77000683  0.02643007    -0.08700
C1072       C  0.06779480  0.73493494  0.67193858     0.07400
C1073       C  0.01890046  0.74389025  0.66131395    -0.02500
C1074       C  0.00220883  0.79050775  0.66045326    -0.07000
C1075       C  0.03047876  0.82748294  0.67885542     0.06600
C1076       C  0.07908258  0.81586516  0.03103824    -0.02000
Br1077     Br  0.11400374  0.86246210  0.06854405    -0.01700
H1078       H  0.13412212  0.76257295  0.04095208     0.10500
H1079       H  0.96593467  0.79749967  0.64826041     0.08500
Br1080     Br  0.97069283  0.69482028  0.65904004    -0.02100
C1081       C  0.52544939  0.68943710  0.85247401    -0.08700
C1082       C  0.48779236  0.71859629  0.83607852     0.07400
C1083       C  0.44732123  0.69764967  0.81419838    -0.02500
C1084       C  0.44512587  0.64794331  0.80888015    -0.07000
C1085       C  0.48263410  0.61897214  0.82625536     0.06600
C1086       C  0.52294058  0.64011706  0.84817959    -0.02000
Br1087     Br  0.57693267  0.60375456  0.86981882    -0.01700
H1088       H  0.55775258  0.70532940  0.86729667     0.10500
H1089       H  0.41351187  0.63181025  0.79260264     0.08500
Br1090     Br  0.39414513  0.73572886  0.79328282    -0.02100
C1091       C  0.73461743  0.98629442  0.81080847    -0.08700
C1092       C  0.71431435  0.94483181  0.83058194     0.07400
C1093       C  0.74466467  0.90554408  0.84120926    -0.02500
C1094       C  0.79409300  0.91209833  0.84284510    -0.07000
C1095       C  0.81430100  0.95467930  0.82638019     0.06600
C1096       C  0.78447920  0.99040759  0.80610533    -0.02000
Br1097     Br  0.80931498  0.04435034  0.77043359    -0.01700
H1098       H  0.71156113  0.01466407  0.79774689     0.10500
H1099       H  0.81707965  0.88276270  0.85376146     0.08500
Br1100     Br  0.72293446  0.84042894  0.84318472    -0.02100
C1101       C  0.59222260  0.65900676  0.66287203    -0.08700
C1102       C  0.55791878  0.69494067  0.66795828     0.07400
C1103       C  0.50658950  0.68003404  0.00395241    -0.02500
C1104       C  0.49452255  0.63153530  0.00459420    -0.07000
C1105       C  0.52940198  0.59812650  0.66738400     0.06600
C1106       C  0.57827030  0.61091447  0.66153111    -0.02000
Br1107     Br  0.62722723  0.56542695  0.64712412    -0.01700
H1108       H  0.62973867  0.66854740  0.65877309     0.10500
H1109       H  0.45704435  0.62117936  0.00683020     0.08500
Br1110     Br  0.45543134  0.72570336  0.00423209    -0.02100
C1111       C  0.78495961  0.85197568  0.99346484    -0.08700
C1112       C  0.74802809  0.88399169  0.00489453     0.07400
C1113       C  0.76326546  0.93819042  0.65181384    -0.02500
C1114       C  0.81160669  0.95275215  0.65214898    -0.07000
C1115       C  0.84561627  0.91482595  0.00400581     0.06600
C1116       C  0.83315156  0.86713755  0.99240993    -0.02000
Br1117     Br  0.88013166  0.82137138  0.97339366    -0.01700
H1118       H  0.77614813  0.81524467  0.98468765     0.10500
H1119       H  0.82098561  0.98810943  0.63914413     0.08500
Br1120     Br  0.71700303  0.98372253  0.62964940    -0.02100
C1121       C  0.36353255  0.33016736  0.84534252    -0.08700
C1122       C  0.41180665  0.34193783  0.83550402     0.07400
C1123       C  0.44472345  0.30478784  0.82692652    -0.02500
C1124       C  0.42924106  0.25714250  0.82769381    -0.07000
C1125       C  0.38098957  0.24544832  0.83730949     0.06600
C1126       C  0.34810356  0.28233054  0.84659463    -0.02000
Br1127     Br  0.28187952  0.26839698  0.85922510    -0.01700
H1128       H  0.33740559  0.35818301  0.85025530     0.10500
H1129       H  0.45497062  0.22884841  0.82106077     0.08500
Br1130     Br  0.51144648  0.31761487  0.81580403    -0.02100
C1131       C  0.13100771  0.98846317  0.85019923    -0.08700
C1132       C  0.09384802  0.02072722  0.84024846     0.07400
C1133       C  0.10598720  0.06825416  0.82804288    -0.02900
C1134       C  0.15400316  0.08347568  0.82845489    -0.07000
C1135       C  0.19091105  0.05140876  0.83891863     0.06600
C1136       C  0.17921988  0.00320524  0.84831708    -0.02000
Br1137     Br  0.22826024  0.95567227  0.85338866    -0.01700
H1138       H  0.12267780  0.95139463  0.85752770     0.10500
H1139       H  0.16273367  0.12017847  0.81958426     0.08500
Br1140     Br  0.05882467  0.11339291  0.80803459    -0.02100
C1141       C  0.40914123  0.25457660  0.68996851    -0.08700
C1142       C  0.44030487  0.22519124  0.66248187     0.07400
C1143       C  0.47519068  0.24404000  0.97046353    -0.02500
C1144       C  0.47615702  0.29339802  0.96350853    -0.07000
C1145       C  0.44486553  0.32501541  0.65457521     0.06600
C1146       C  0.41093442  0.30389854  0.68606322    -0.02000
Br1147     Br  0.36322371  0.33997482  0.72107497    -0.01700
H1148       H  0.38196752  0.23905993  0.71354773     0.10500
H1149       H  0.50346801  0.30860486  0.93961244     0.08500
Br1150     Br  0.52277155  0.20618302  0.93733755    -0.02100
C1151       C  0.15306607  0.94368468  0.98349880    -0.08700
C1152       C  0.12613752  0.98396159  0.99797320     0.07400
C1153       C  0.15269609  0.02544358  0.68144147    -0.02500
C1154       C  0.20256039  0.02651265  0.68250945    -0.07000
C1155       C  0.22726081  0.98586213  0.00006201     0.06600
C1156       C  0.20339540  0.94406242  0.98560991    -0.02000
Br1157     Br  0.23825740  0.88730052  0.96926691    -0.01700
H1158       H  0.13482531  0.91139596  0.97185197     0.10500
H1159       H  0.22030754  0.06018442  0.68894474     0.08500
Br1160     Br  0.11904500  0.08330284  0.69569923    -0.02100
C1161       C  0.83908756  0.16719637  0.85695097    -0.08700
C1162       C  0.86578382  0.20525849  0.83761304     0.07400
C1163       C  0.91469385  0.19765117  0.82552391    -0.02500
C1164       C  0.93222144  0.15149484  0.82201172    -0.07000
C1165       C  0.90566989  0.11319830  0.84000571     0.06600
C1166       C  0.85982829  0.12175486  0.86101273    -0.02000
Br1167     Br  0.82486790  0.07382161  0.89693383    -0.01700
H1168       H  0.80304223  0.17339370  0.87067140     0.10500
H1169       H  0.96824190  0.14612226  0.80887138     0.08500
Br1170     Br  0.96246296  0.24733298  0.82499527    -0.02100
C1171       C  0.67808884  0.46773533  0.80544227    -0.08700
C1172       C  0.69601724  0.42879111  0.83199729     0.07400
C1173       C  0.66266984  0.39740714  0.85466444    -0.02500
C1174       C  0.61326125  0.40736910  0.85379822    -0.07000
C1175       C  0.59538179  0.44669207  0.82779778     0.06600
C1176       C  0.62847931  0.47660118  0.80296738    -0.02000
Br1177     Br  0.60833977  0.53193578  0.76781714    -0.01700
H1178       H  0.70290007  0.49153773  0.78682723     0.10500
H1179       H  0.58850762  0.38323487  0.87207494     0.08500
Br1180     Br  0.68129957  0.33702780  0.88116937    -0.02100
C1181       C  0.90983473  0.11620428  0.01807712    -0.08700
C1182       C  0.95603602  0.10274549  0.66005827     0.07400
C1183       C  0.98530383  0.13559714  0.63416453    -0.02500
C1184       C  0.97486791  0.18466389  0.63563541    -0.07000
C1185       C  0.93481561  0.20171954  0.66171584     0.06600
C1186       C  0.89938630  0.16507553  0.01726084    -0.02000
Br1187     Br  0.83730289  0.18389814  0.04058853    -0.01700
H1188       H  0.88493225  0.09179259  0.03574713     0.10500
H1189       H  0.99829674  0.20968115  0.61684070     0.08500
Br1190     Br  0.04127118  0.11605305  0.59857294    -0.02100
C1191       C  0.65405251  0.43538709  0.66096655    -0.08700
C1192       C  0.61458434  0.40375886  0.00210877     0.07400
C1193       C  0.62062472  0.35547970  0.01558870    -0.02500
C1194       C  0.66648929  0.33517339  0.01503696    -0.07000
C1195       C  0.70664156  0.36335163  0.00451464     0.06600
C1196       C  0.69978429  0.41619690  0.66424123    -0.02000
Br1197     Br  0.75158619  0.46188153  0.66364706    -0.01700
H1198       H  0.65015013  0.47296613  0.65458850     0.10500
H1199       H  0.67102871  0.29763695  0.02334965     0.08500
Br1200     Br  0.56817442  0.31580071  0.03514196    -0.02100
loop_ 
_geom_bond_atom_site_label_1 
_geom_bond_atom_site_label_2 
_geom_bond_distance 
_geom_bond_site_symmetry_2 
_ccdc_geom_bond_type 
C1            C3   1.559       .  S
C1            C5   1.520       .  S
C1            C4   1.581       .  S
C1           C24   1.689       .  S
C2            C6   1.548       .  S
C2            C8   1.526       .  S
C2            C7   1.576       .  S
C2           C25   1.682       .  S
C3           C11   1.402       .  A
C3          C806   1.429   1_554  A
C4           C15   1.381       .  A
C4          C807   1.435   1_554  A
C5           C19   1.383       .  A
C5          C808   1.404   1_554  A
C6            C9   1.398       .  A
C6          C403   1.429       .  A
C7           C13   1.388       .  A
C7          C404   1.434       .  A
C8           C16   1.378       .  A
C8          C405   1.401       .  A
C9           N10   1.338       .  A
C9           H22   1.078       .  S
N10         C411   1.343       .  A
N10         N148   1.417   1_655  S
C11         N810   1.343   1_554  A
C11          H12   1.079       .  S
C13         N414   1.349       .  A
C13          H23   1.076       .  S
N14          C15   1.350   1_556  A
N14         C813   1.349       .  A
N14         C385   1.443       .  S
C15          H21   1.060       .  S
C16         N417   1.342       .  A
C16          H18   1.076       .  S
N17          C19   1.337       .  A
N17         C816   1.341   1_554  A
N17        C1195   1.432       .  S
C19          H20   1.080       .  S
C24          C26   1.550       .  S
C24          C28   1.535       .  S
C24          C27   1.584       .  S
C25          C29   1.551       .  S
C25          C31   1.520       .  S
C25          C30   1.583       .  S
C26          C34   1.397       .  A
C26          C29   1.427       .  A
C27          C38   1.391       .  A
C27          C30   1.433       .  A
C28          C42   1.381       .  A
C28          C31   1.404       .  A
C29          C32   1.398       .  A
C30          C36   1.387       .  A
C31          C39   1.383       .  A
C32          N33   1.340       .  A
C32          H45   1.078       .  S
N33          C34   1.339       .  A
N33         N171   1.415       .  S
C34          H35   1.078       .  S
C36          N37   1.350       .  A
C36          H46   1.064       .  S
N37          C38   1.351       .  A
N37         C372   1.448       .  S
C38          H44   1.072       .  S
C39          N40   1.335       .  A
C39          H41   1.080       .  S
N40          C42   1.347       .  A
N40         C362   1.435       .  S
C42          H43   1.074       .  S
C47          C49   1.582       .  S
C47          C51   1.545       .  S
C47          C50   1.529       .  S
C47          C71   1.664       .  S
C48          C52   1.579       .  S
C48          C54   1.548       .  S
C48          C53   1.533       .  S
C48          C70   1.706       .  S
C49          C57   1.390       .  A
C49         C852   1.431   1_554  A
C50          C61   1.385       .  A
C50         C853   1.398   1_554  A
C51          C65   1.398       .  A
C51         C854   1.423   1_554  A
C52          C55   1.354       .  A
C52         C449   1.420       .  A
C53          C59   1.385       .  A
C53         C450   1.408       .  A
C54          C62   1.392       .  A
C54         C451   1.430       .  A
C55          N56   1.338       .  A
C55          H68   1.067   1_545  S
N56         C457   1.357       .  A
N56         N102   1.415   1_545  S
C57         N856   1.360       .  A
C57          H58   1.079       .  S
C59         N460   1.345   1_545  A
C59          H69   1.079   1_545  S
N60          C61   1.347   1_565  A
N60         C859   1.346   1_564  A
N60        C1155   1.435       .  S
C61          H67   1.079   1_545  S
C62         N463   1.334       .  A
C62          H64   1.078       .  S
N63          C65   1.336       .  A
N63         C862   1.330   1_554  A
N63         C342   1.433       .  S
C65          H66   1.078       .  S
C70          C72   1.559       .  S
C70          C74   1.563       .  S
C70          C73   1.582       .  S
C71          C75   1.510       .  S
C71          C77   1.569       .  S
C71          C76   1.556       .  S
C72          C80   1.353       .  A
C72          C75   1.390       .  A
C73          C84   1.392       .  A
C73          C76   1.434       .  A
C74          C88   1.400       .  A
C74          C77   1.425       .  A
C75          C78   1.398   1_545  A
C76          C82   1.383       .  A
C77          C85   1.395       .  A
C78          N79   1.346       .  A
C78          H91   1.082       .  S
N79          C80   1.339   1_565  A
N79         N125   1.412       .  S
C80          H81   1.079       .  S
C82          N83   1.347       .  A
C82          H92   1.075       .  S
N83          C84   1.351       .  A
N83         C335   1.438       .  S
C84          H90   1.079       .  S
C85          N86   1.342       .  A
C85          H87   1.077       .  S
N86          C88   1.342       .  A
N86         C325   1.444       .  S
C88          H89   1.078       .  S
C93          C95   1.543       .  S
C93          C97   1.552       .  S
C93          C96   1.575       .  S
C93         C117   1.671       .  S
C94          C98   1.541       .  S
C94         C100   1.555       .  S
C94          C99   1.582       .  S
C94         C116   1.689       .  S
C95         C103   1.390       .  A
C95         C898   1.397   1_554  A
C96         C107   1.391       .  A
C96         C899   1.429   1_554  A
C97         C111   1.402       .  A
C97         C900   1.427   1_554  A
C98         C101   1.380       .  A
C98         C495   1.399       .  A
C99         C105   1.386       .  A
C99         C496   1.430       .  A
C100        C108   1.400       .  A
C100        C497   1.430       .  A
C101        N102   1.356       .  A
C101        H114   1.078       .  S
N102        C503   1.339       .  A
C103        N902   1.351       .  A
C103        H104   1.078       .  S
C105        N506   1.350       .  A
C105        H115   1.062       .  S
N106        C107   1.351       .  A
N106        C905   1.350   1_554  A
N106       C1112   1.446       .  S
C107        H113   1.074       .  S
C108        N509   1.333       .  A
C108        H110   1.077       .  S
N109        C111   1.333       .  A
N109        C908   1.333   1_554  A
N109        C302   1.437       .  S
C111        H112   1.078       .  S
C116        C118   1.572       .  S
C116        C120   1.552       .  S
C116        C119   1.529       .  S
C117        C121   1.560       .  S
C117        C123   1.553       .  S
C117        C122   1.521       .  S
C118        C126   1.376       .  A
C118        C121   1.437       .  A
C119        C130   1.382       .  A
C119        C122   1.402       .  A
C120        C134   1.398       .  A
C120        C123   1.428       .  A
C121        C124   1.383       .  A
C122        C128   1.379       .  A
C123        C131   1.399       .  A
C124        N125   1.348       .  A
C124        H137   1.080       .  S
N125        C126   1.359       .  A
C126        H127   1.077       .  S
C128        N129   1.337       .  A
C128        H138   1.078       .  S
N129        C130   1.343       .  A
N129        C292   1.431       .  S
C130        H136   1.078       .  S
C131        N132   1.335       .  A
C131        H133   1.078       .  S
N132        C134   1.336       .  A
N132        C282   1.435       .  S
C134        H135   1.078       .  S
C139        C141   1.560       .  S
C139        C143   1.531       .  S
C139        C142   1.579       .  S
C139        C163   1.688       .  S
C140        C144   1.546       .  S
C140        C146   1.521       .  S
C140        C145   1.583       .  S
C140        C162   1.682       .  S
C141        C149   1.401       .  A
C141        C544   1.427       .  A
C142        C153   1.390       .  A
C142        C545   1.435       .  A
C143        C157   1.383       .  A
C143        C546   1.406       .  A
C144        C147   1.397       .  A
C144        C941   1.426   1_554  A
C145        C151   1.386       .  A
C145        C942   1.436   1_554  A
C146        C154   1.381       .  A
C146        C943   1.404   1_554  A
C147        N948   1.338   1_554  A
C147        H160   1.078       .  S
N148        C149   1.344       .  A
N148        C547   1.338       .  A
C149        H150   1.078       .  S
C151        N952   1.354   1_554  A
C151        H161   1.072       .  S
N152        C153   1.353       .  A
N152        C551   1.355       .  A
N152        C262   1.447       .  S
C153        H159   1.079       .  S
C154        N955   1.335       .  A
C154        H156   1.080       .  S
N155        C157   1.343       .  A
N155        C554   1.334       .  A
N155        C672   1.426       .  S
C157        H158   1.080       .  S
C162        C164   1.552       .  S
C162        C166   1.577       .  S
C162        C165   1.529       .  S
C163        C167   1.551       .  S
C163        C169   1.587       .  S
C163        C168   1.530       .  S
C164        C172   1.400   1_455  A
C164        C167   1.430       .  A
C165        C176   1.380       .  A
C165        C168   1.401       .  A
C166        C180   1.392       .  A
C166        C169   1.431       .  A
C167        C170   1.399   1_455  A
C168        C174   1.387       .  A
C169        C177   1.384       .  A
C170        N171   1.338       .  A
C170        H183   1.078       .  S
N171        C172   1.339       .  A
C172        H173   1.078       .  S
C174        N175   1.344       .  A
C174        H184   1.080       .  S
N175        C176   1.345       .  A
N175        C242   1.436       .  S
C176        H182   1.076       .  S
C177        N178   1.353       .  A
C177        H179   1.058       .  S
N178        C180   1.352       .  A
N178        C252   1.450   1_455  S
C180        H181   1.075       .  S
O185        V193   1.927       .  S
O185        C995   1.266       .  A
O186        V193   1.915   1_455  S
O186        C996   1.265   1_554  A
O187        V193   1.903   1_545  S
O187        C197   1.261   1_554  A
O188        V193   1.893   1_455  S
O188        C198   1.255       .  A
O189        V194   1.899       .  S
O189        C598   1.263   1_655  A
O190        V194   1.908   1_545  S
O190        C597   1.261       .  A
O191        V194   1.898   1_455  S
O191        C196   1.259       .  A
O192        V194   1.909       .  S
O192        C195   1.262       .  A
V193        V994   2.066   1_554  T
V194        V593   2.063       .  T
C195        O585   1.264       .  A
C195        C315   1.486       .  S
C196        O586   1.266       .  A
C196        C352   1.470       .  S
C197        O990   1.261       .  A
C197        C382   1.481       .  S
C198        O989   1.263   1_454  A
C198        C275   1.460       .  S
O199        V207   1.894   1_545  S
O199        C209   1.256       .  A
O200        V207   1.904       .  S
O200        C210   1.261       .  A
O201        V207   1.916   1_455  S
O201        C211   1.263   1_565  A
O202        V207   1.904       .  S
O202        C212   1.264       .  A
O203        V208   1.884       .  S
O203        C212   1.254       .  A
O204        V208   1.900   1_455  S
O204        C211   1.259   1_565  A
O205        V208   1.920       .  S
O205        C210   1.264       .  A
O206        V208   1.907   1_545  S
O206        C209   1.267       .  A
V207        V208   2.068       .  T
C209        C365   1.469       .  S
C210        C255   1.491       .  S
C211        C332   1.480       .  S
C212        C295   1.457       .  S
O213        V221   1.896       .  S
O213       C1023   1.257   1_554  A
O214        V221   1.907       .  S
O214       C1024   1.262   1_554  A
O215        V221   1.894       .  S
O215        C225   1.262   1_554  A
O216        V221   1.914       .  S
O216        C226   1.264   1_554  A
O217        V222   1.900       .  S
O217        C626   1.260       .  A
O218        V222   1.887       .  S
O218        C625   1.256       .  A
O219        V222   1.915       .  S
O219        C224   1.265       .  A
O220        V222   1.905       .  S
O220        C223   1.264       .  A
V221       V1022   2.065   1_554  T
V222        V621   2.067       .  T
C223        O613   1.256       .  A
C223        C392   1.462       .  S
C224        O614   1.261       .  A
C224        C265   1.491       .  S
C225       O1018   1.258       .  A
C225        C345   1.462       .  S
C226       O1017   1.261       .  A
C226        C305   1.479   1_556  S
O227        V235   1.916       .  S
O227        C237   1.265       .  A
O228        V235   1.907       .  S
O228        C238   1.262       .  A
O229        V235   1.910       .  S
O229        C239   1.263       .  A
O230        V235   1.904       .  S
O230        C240   1.263       .  A
O231        V236   1.894       .  S
O231        C240   1.257       .  A
O232        V236   1.912       .  S
O232        C239   1.263       .  A
O233        V236   1.900       .  S
O233        C238   1.263       .  A
O234        V236   1.913       .  S
O234        C237   1.262       .  A
V235        V236   2.062       .  T
C237        C322   1.488       .  S
C238        C285   1.472       .  S
C239        C375   1.491       .  S
C240        C245   1.461       .  S
C241        C242   1.409       .  A
C241        C246   1.391       .  A
C241        H248   1.081       .  S
C242        C243   1.401       .  A
C243        C244   1.400       .  A
C243       Br250   1.912       .  S
C244        C245   1.407       .  A
C244        H249   1.083       .  S
C245        C246   1.399       .  A
C246       Br247   1.916       .  S
C251        C252   1.407   1_455  A
C251        C256   1.402       .  A
C251        H258   1.083       .  S
C252        C253   1.410       .  A
C253        C254   1.410       .  A
C253       Br260   1.914       .  S
C254        C255   1.408       .  A
C254        H259   1.084       .  S
C255        C256   1.410   1_655  A
C256       Br257   1.918       .  S
C261        C262   1.400       .  A
C261        C266   1.405       .  A
C261        H268   1.083       .  S
C262        C663   1.416       .  A
C263        C264   1.404       .  A
C263       C1062   1.415   1_554  A
C263       Br270   1.912       .  S
C264       C1065   1.400   1_554  A
C264        H269   1.084       .  S
C265        C266   1.413       .  A
C265        C664   1.401       .  A
C266       Br267   1.902       .  S
C271        C276   1.396       .  A
C271        C672   1.396       .  A
C271        H278   1.083       .  S
C272        C273   1.413   1_554  A
C272       C1071   1.400       .  A
C272        N955   1.429       .  S
C273        C274   1.380       .  A
C273       Br280   1.922   1_455  S
C274        C275   1.388   1_556  A
C274        H279   1.073   1_455  S
C275       C1076   1.413       .  A
C276        C675   1.413       .  A
C276       Br277   1.918       .  S
C281        C282   1.404       .  A
C281        C286   1.391       .  A
C281        H288   1.082       .  S
C282        C283   1.403       .  A
C283        C284   1.404       .  A
C283       Br290   1.914       .  S
C284        C285   1.408       .  A
C284        H289   1.083       .  S
C285        C286   1.403       .  A
C286       Br287   1.908       .  S
C291        C292   1.395       .  A
C291        C296   1.396       .  A
C291        H298   1.083   1_565  S
C292        C293   1.421       .  A
C293        C294   1.390       .  A
C293       Br300   1.922       .  S
C294        C295   1.391       .  A
C294        H299   1.084       .  S
C295        C296   1.413       .  A
C296       Br297   1.919   1_565  S
C301        C302   1.398   1_556  A
C301        C306   1.405       .  A
C301        H308   1.083       .  S
C302       C1103   1.410       .  A
C303        C304   1.396       .  A
C303        C702   1.410       .  A
C303       Br310   1.916       .  S
C304        C705   1.398       .  A
C304        H309   1.084       .  S
C305        C306   1.414   1_554  A
C305       C1104   1.400       .  A
C306       Br307   1.911       .  S
C311        C312   1.398       .  A
C311        C316   1.404       .  A
C311        H318   1.083       .  S
C312        C713   1.413       .  A
C312        N506   1.442       .  S
C313        C314   1.408       .  A
C313       C1112   1.412       .  A
C313       Br320   1.914       .  S
C314       C1115   1.403       .  A
C314        H319   1.083       .  S
C315        C316   1.412       .  A
C315        C714   1.402       .  A
C316       Br317   1.904       .  S
C321        C322   1.407       .  A
C321        C326   1.405       .  A
C321        H328   1.077       .  S
C322        C323   1.406       .  A
C323        C324   1.405       .  A
C323       Br330   1.915       .  S
C324        C325   1.409       .  A
C324        H329   1.083       .  S
C325        C326   1.402       .  A
C326       Br327   1.913       .  S
C331        C332   1.400   1_565  A
C331        C336   1.401       .  A
C331        H338   1.082       .  S
C332        C333   1.412       .  A
C333        C334   1.403       .  A
C333       Br340   1.908       .  S
C334        C335   1.398       .  A
C334        H339   1.083       .  S
C335        C336   1.410   1_545  A
C336       Br337   1.914       .  S
C341        C342   1.407       .  A
C341        C346   1.389       .  A
C341        H348   1.080       .  S
C342       C1143   1.407   1_554  A
C343        C344   1.396       .  A
C343        C742   1.405       .  A
C343       Br350   1.916       .  S
C344        C745   1.405       .  A
C344        H349   1.084       .  S
C345        C346   1.403   1_556  A
C345       C1144   1.404       .  A
C346       Br347   1.919       .  S
C351        C352   1.408       .  A
C351        C356   1.403       .  A
C351        H358   1.083       .  S
C352        C753   1.400   1_565  A
C353        C354   1.390       .  A
C353       C1152   1.402   1_544  A
C353       Br360   1.906       .  S
C354       C1155   1.405   1_545  A
C354        H359   1.081       .  S
C355        C356   1.402       .  A
C355        C754   1.406   1_565  A
C355        N460   1.436       .  S
C356       Br357   1.914       .  S
C361        C362   1.401       .  A
C361        C366   1.404       .  A
C361        H368   1.083       .  S
C362        C363   1.414       .  A
C363        C364   1.385       .  A
C363       Br370   1.922       .  S
C364        C365   1.390       .  A
C364        H369   1.074       .  S
C365        C366   1.416       .  A
C366       Br367   1.922       .  S
C371        C372   1.399       .  A
C371        C376   1.403       .  A
C371        H378   1.083       .  S
C372        C373   1.418       .  A
C373        C374   1.405       .  A
C373       Br380   1.912       .  S
C374        C375   1.402       .  A
C374        H379   1.084       .  S
C375        C376   1.413       .  A
C376       Br377   1.905       .  S
C381        C386   1.400       .  A
C381        C782   1.399       .  A
C381        H388   1.083       .  S
C382        C383   1.412       .  A
C382       C1181   1.399   1_556  A
C383        C384   1.403       .  A
C383       Br390   1.908   1_655  S
C384        C385   1.400       .  A
C384        H389   1.083       .  S
C385       C1186   1.415   1_556  A
C386        C785   1.415       .  A
C386       Br387   1.913       .  S
C391        C396   1.386       .  A
C391       C1192   1.388   1_556  A
C391        H398   1.078       .  S
C392        C393   1.411       .  A
C392        C791   1.388       .  A
C393        C394   1.398       .  A
C393       Br400   1.907       .  S
C394        C395   1.396       .  A
C394        H399   1.083       .  S
C395        C796   1.421       .  A
C395        N417   1.432       .  S
C396       C1195   1.420   1_556  A
C396       Br397   1.924       .  S
C401        C403   1.558       .  S
C401        C405   1.514       .  S
C401        C404   1.587       .  S
C401        C424   1.687       .  S
C402        C406   1.548       .  S
C402        C408   1.521       .  S
C402        C407   1.577       .  S
C402        C425   1.682       .  S
C403        C411   1.401       .  A
C404        C415   1.385       .  A
C405        C419   1.380       .  A
C406        C803   1.430       .  A
C406        C409   1.397       .  A
C407        C804   1.433       .  A
C407        C413   1.388       .  A
C408        C805   1.402       .  A
C408        C416   1.375       .  A
C409        N410   1.338       .  A
C409        H422   1.078       .  S
N410        C811   1.341       .  A
N410        N548   1.415   1_655  S
C411        H412   1.079       .  S
C413        N814   1.349       .  A
C413        H423   1.075       .  S
N414        C415   1.352       .  A
N414        C785   1.444       .  S
C415        H421   1.061       .  S
C416        N817   1.340       .  A
C416        H418   1.076       .  S
N417        C419   1.335       .  A
C419        H420   1.080       .  S
C424        C426   1.547       .  S
C424        C428   1.530       .  S
C424        C427   1.591       .  S
C425        C429   1.550       .  S
C425        C431   1.520       .  S
C425        C430   1.589       .  S
C426        C434   1.396       .  A
C426        C429   1.424       .  A
C427        C438   1.396       .  A
C427        C430   1.434       .  A
C428        C442   1.380       .  A
C428        C431   1.401       .  A
C429        C432   1.397       .  A
C430        C436   1.393       .  A
C431        C439   1.384       .  A
C432        N433   1.341       .  A
C432        H445   1.079       .  S
N433        C434   1.339       .  A
N433        N571   1.415       .  S
C434        H435   1.078       .  S
C436        N437   1.354       .  A
C436        H446   1.067       .  S
N437        C438   1.353       .  A
N437        C772   1.456       .  S
C438        H444   1.071       .  S
C439        N440   1.336       .  A
C439        H441   1.080       .  S
N440        C442   1.345       .  A
N440        C762   1.435       .  S
C442        H443   1.074       .  S
C447        C449   1.569       .  S
C447        C451   1.541       .  S
C447        C450   1.544       .  S
C447        C471   1.663       .  S
C448        C452   1.584       .  S
C448        C454   1.544       .  S
C448        C453   1.530       .  S
C448        C470   1.709       .  S
C449        C457   1.403       .  A
C450        C461   1.386       .  A
C451        C465   1.393       .  A
C452        C849   1.423       .  A
C452        C455   1.353       .  A
C453        C850   1.408       .  A
C453        C459   1.384       .  A
C454        C851   1.431       .  A
C454        C462   1.390       .  A
C455        N456   1.339       .  A
C455        H468   1.064   1_545  S
N456        C857   1.356       .  A
N456        N502   1.412   1_545  S
C457        H458   1.080       .  S
C459        N860   1.344   1_545  A
C459        H469   1.079   1_545  S
N460        C461   1.347   1_565  A
C461        H467   1.078   1_545  S
C462        N863   1.332       .  A
C462        H464   1.077       .  S
N463        C465   1.335       .  A
N463        C742   1.432       .  S
C465        H466   1.078       .  S
C470        C472   1.559       .  S
C470        C474   1.567       .  S
C470        C473   1.584       .  S
C471        C475   1.517       .  S
C471        C477   1.564       .  S
C471        C476   1.552       .  S
C472        C480   1.356       .  A
C472        C475   1.391       .  A
C473        C484   1.393       .  A
C473        C476   1.437       .  A
C474        C488   1.401       .  A
C474        C477   1.424       .  A
C475        C478   1.402   1_545  A
C476        C482   1.383       .  A
C477        C485   1.395       .  A
C478        N479   1.347       .  A
C478        H491   1.082       .  S
N479        C480   1.338   1_565  A
N479        N525   1.415       .  S
C480        H481   1.080       .  S
C482        N483   1.345       .  A
C482        H492   1.077       .  S
N483        C484   1.351       .  A
N483        C735   1.436       .  S
C484        H490   1.079       .  S
C485        N486   1.344       .  A
C485        H487   1.078       .  S
N486        C488   1.345       .  A
N486        C725   1.445       .  S
C488        H489   1.079       .  S
C493        C495   1.530       .  S
C493        C497   1.550       .  S
C493        C496   1.571       .  S
C493        C517   1.668       .  S
C494        C498   1.539       .  S
C494        C500   1.554       .  S
C494        C499   1.583       .  S
C494        C516   1.692       .  S
C495        C503   1.388       .  A
C496        C507   1.388       .  A
C497        C511   1.399       .  A
C498        C895   1.401       .  A
C498        C501   1.379       .  A
C499        C896   1.433       .  A
C499        C505   1.388       .  A
C500        C897   1.427       .  A
C500        C508   1.399       .  A
C501        N502   1.355       .  A
C501        H514   1.079       .  S
N502        C903   1.338       .  A
C503        H504   1.078       .  S
C505        N906   1.350       .  A
C505        H515   1.061       .  S
N506        C507   1.348       .  A
C507        H513   1.075       .  S
C508        N909   1.334       .  A
C508        H510   1.078       .  S
N509        C511   1.332       .  A
N509        C702   1.433       .  S
C511        H512   1.078       .  S
C516        C518   1.574       .  S
C516        C520   1.555       .  S
C516        C519   1.530       .  S
C517        C521   1.566       .  S
C517        C523   1.546       .  S
C517        C522   1.522       .  S
C518        C526   1.376       .  A
C518        C521   1.433       .  A
C519        C530   1.379       .  A
C519        C522   1.401       .  A
C520        C534   1.399       .  A
C520        C523   1.430       .  A
C521        C524   1.386       .  A
C522        C528   1.382       .  A
C523        C531   1.397       .  A
C524        N525   1.348       .  A
C524        H537   1.080       .  S
N525        C526   1.360       .  A
C526        H527   1.075       .  S
C528        N529   1.337       .  A
C528        H538   1.080       .  S
N529        C530   1.345       .  A
N529        C692   1.434       .  S
C530        H536   1.076       .  S
C531        N532   1.332       .  A
C531        H533   1.078       .  S
N532        C534   1.336       .  A
N532        C682   1.432       .  S
C534        H535   1.078       .  S
C539        C541   1.554       .  S
C539        C543   1.534       .  S
C539        C542   1.580       .  S
C539        C563   1.681       .  S
C540        C544   1.546       .  S
C540        C546   1.517       .  S
C540        C545   1.584       .  S
C540        C562   1.684       .  S
C541        C549   1.399       .  A
C541        C944   1.427       .  A
C542        C553   1.391       .  A
C542        C945   1.434       .  A
C543        C557   1.385       .  A
C543        C946   1.403       .  A
C544        C547   1.396       .  A
C545        C551   1.385       .  A
C546        C554   1.378       .  A
C547        H560   1.078       .  S
N548        C947   1.338       .  A
N548        C549   1.340       .  A
C549        H550   1.078       .  S
C551        H561   1.068       .  S
N552        C951   1.355       .  A
N552        C553   1.353       .  A
N552        C662   1.446       .  S
C553        H559   1.079       .  S
C554        H556   1.080       .  S
N555        C954   1.335       .  A
N555        C557   1.345       .  A
N555       C1072   1.430       .  S
C557        H558   1.079       .  S
C562        C564   1.553       .  S
C562        C566   1.581       .  S
C562        C565   1.527       .  S
C563        C567   1.549       .  S
C563        C569   1.578       .  S
C563        C568   1.523       .  S
C564        C572   1.401   1_455  A
C564        C567   1.429       .  A
C565        C576   1.380       .  A
C565        C568   1.401       .  A
C566        C580   1.391       .  A
C566        C569   1.432       .  A
C567        C570   1.399   1_455  A
C568        C574   1.384       .  A
C569        C577   1.378       .  A
C570        N571   1.338       .  A
C570        H583   1.079       .  S
N571        C572   1.340       .  A
C572        H573   1.078       .  S
C574        N575   1.340       .  A
C574        H584   1.081       .  S
N575        C576   1.346       .  A
N575        C642   1.433       .  S
C576        H582   1.077       .  S
C577        N578   1.351       .  A
C577        H579   1.061       .  S
N578        C580   1.354       .  A
N578        C652   1.446   1_455  S
C580        H581   1.075       .  S
O585        V593   1.917       .  S
O586        V593   1.910   1_455  S
O587        V593   1.904   1_545  S
O587        C597   1.262       .  A
O588        V593   1.885   1_455  S
O588        C598   1.254       .  A
O589        V594   1.902       .  S
O589        C998   1.265   1_655  A
O590        V594   1.912   1_545  S
O590        C997   1.261       .  A
O591        V594   1.896   1_455  S
O591        C596   1.259       .  A
O592        V594   1.909       .  S
O592        C595   1.262       .  A
V594        V993   2.059       .  T
C595        O985   1.265       .  A
C595        C715   1.491       .  S
C596        O986   1.265       .  A
C596        C752   1.466       .  S
C597        C782   1.483       .  S
C598        C675   1.456       .  S
O599        V607   1.895   1_545  S
O599        C609   1.257       .  A
O600        V607   1.903       .  S
O600        C610   1.260       .  A
O601        V607   1.911   1_455  S
O601        C611   1.261   1_565  A
O602        V607   1.907       .  S
O602        C612   1.264       .  A
O603        V608   1.883       .  S
O603        C612   1.254       .  A
O604        V608   1.899   1_455  S
O604        C611   1.259   1_565  A
O605        V608   1.918       .  S
O605        C610   1.265       .  A
O606        V608   1.908   1_545  S
O606        C609   1.266       .  A
V607        V608   2.072       .  T
C609        C765   1.471       .  S
C610        C655   1.488       .  S
C611        C732   1.474       .  S
C612        C695   1.459       .  S
O613        V621   1.897       .  S
O614        V621   1.905       .  S
O615        V621   1.894       .  S
O615        C625   1.261       .  A
O616        V621   1.911       .  S
O616        C626   1.263       .  A
O617        V622   1.901       .  S
O617       C1026   1.260       .  A
O618        V622   1.886       .  S
O618       C1025   1.257       .  A
O619        V622   1.913       .  S
O619        C624   1.263       .  A
O620        V622   1.905       .  S
O620        C623   1.264       .  A
V622       V1021   2.065       .  T
C623       O1013   1.257       .  A
C623        C792   1.462       .  S
C624       O1014   1.262       .  A
C624        C665   1.492       .  S
C625        C745   1.460       .  S
C626        C705   1.474       .  S
O627        V635   1.916       .  S
O627        C637   1.265       .  A
O628        V635   1.904       .  S
O628        C638   1.261       .  A
O629        V635   1.916       .  S
O629        C639   1.264       .  A
O630        V635   1.905       .  S
O630        C640   1.263       .  A
O631        V636   1.895       .  S
O631        C640   1.256       .  A
O632        V636   1.919       .  S
O632        C639   1.265       .  A
O633        V636   1.896       .  S
O633        C638   1.262       .  A
O634        V636   1.915       .  S
O634        C637   1.262       .  A
V635        V636   2.060       .  T
C637        C722   1.489       .  S
C638        C685   1.468       .  S
C639        C775   1.503       .  S
C640        C645   1.460       .  S
C641        C642   1.407       .  A
C641        C646   1.387       .  A
C641        H648   1.081       .  S
C642        C643   1.399       .  A
C643        C644   1.402       .  A
C643       Br650   1.914       .  S
C644        C645   1.410       .  A
C644        H649   1.083       .  S
C645        C646   1.398       .  A
C646       Br647   1.916       .  S
C651        C652   1.407   1_455  A
C651        C656   1.403       .  A
C651        H658   1.083       .  S
C652        C653   1.406       .  A
C653        C654   1.406       .  A
C653       Br660   1.913       .  S
C654        C655   1.405       .  A
C654        H659   1.080       .  S
C655        C656   1.411   1_655  A
C656       Br657   1.918       .  S
C661        C662   1.399       .  A
C661        C666   1.405       .  A
C661        H668   1.083       .  S
C662       C1063   1.414       .  A
C663        C664   1.405       .  A
C663       Br670   1.911       .  S
C664        H669   1.084       .  S
C665       C1064   1.403       .  A
C665        C666   1.415       .  A
C666       Br667   1.908       .  S
C671       C1072   1.398       .  A
C671        C676   1.399       .  A
C671        H678   1.083       .  S
C672        C673   1.416       .  A
C673        C674   1.385       .  A
C673       Br680   1.923   1_455  S
C674        C675   1.392       .  A
C674        H679   1.081   1_455  S
C676       C1075   1.414       .  A
C676       Br677   1.918       .  S
C681        C682   1.403       .  A
C681        C686   1.390       .  A
C681        H688   1.082       .  S
C682        C683   1.404       .  A
C683        C684   1.403       .  A
C683       Br690   1.914       .  S
C684        C685   1.407       .  A
C684        H689   1.083       .  S
C685        C686   1.403       .  A
C686       Br687   1.909       .  S
C691        C692   1.396       .  A
C691        C696   1.398       .  A
C691        H698   1.083   1_565  S
C692        C693   1.421       .  A
C693        C694   1.391       .  A
C693       Br700   1.922       .  S
C694        C695   1.391       .  A
C694        H699   1.084       .  S
C695        C696   1.413       .  A
C696       Br697   1.920   1_565  S
C701        C702   1.396       .  A
C701        C706   1.402       .  A
C701        H708   1.083       .  S
C703       C1102   1.411       .  A
C703        C704   1.398       .  A
C703       Br710   1.916       .  S
C704       C1105   1.399       .  A
C704        H709   1.084       .  S
C705        C706   1.414       .  A
C706       Br707   1.910       .  S
C711        C712   1.402       .  A
C711        C716   1.408       .  A
C711        H718   1.083       .  S
C712       C1113   1.418       .  A
C712        N906   1.451       .  S
C713        C714   1.405       .  A
C713       Br720   1.915       .  S
C714        H719   1.083       .  S
C715       C1114   1.401       .  A
C715        C716   1.411       .  A
C716       Br717   1.908       .  S
C721        C722   1.409       .  A
C721        C726   1.409       .  A
C721        H728   1.080       .  S
C722        C723   1.406       .  A
C723        C724   1.403       .  A
C723       Br730   1.913       .  S
C724        C725   1.407       .  A
C724        H729   1.083       .  S
C725        C726   1.405       .  A
C726       Br727   1.913       .  S
C731        C732   1.398   1_565  A
C731        C736   1.399       .  A
C731        H738   1.082       .  S
C732        C733   1.411       .  A
C733        C734   1.402       .  A
C733       Br740   1.910       .  S
C734        C735   1.398       .  A
C734        H739   1.083       .  S
C735        C736   1.410   1_545  A
C736       Br737   1.913       .  S
C741        C742   1.407       .  A
C741        C746   1.388       .  A
C741        H748   1.081       .  S
C743       C1142   1.405       .  A
C743        C744   1.396       .  A
C743       Br750   1.917       .  S
C744       C1145   1.407       .  A
C744        H749   1.083       .  S
C745        C746   1.402       .  A
C746       Br747   1.919       .  S
C751        C752   1.408       .  A
C751        C756   1.402       .  A
C751        H758   1.083       .  S
C752       C1153   1.399   1_565  A
C753        C754   1.390       .  A
C753       Br760   1.907       .  S
C754        H759   1.082       .  S
C755       C1154   1.406   1_565  A
C755        C756   1.401       .  A
C755        N860   1.434       .  S
C756       Br757   1.914       .  S
C761        C762   1.399       .  A
C761        C766   1.403       .  A
C761        H768   1.083       .  S
C762        C763   1.416       .  A
C763        C764   1.388       .  A
C763       Br770   1.923       .  S
C764        C765   1.392       .  A
C764        H769   1.075       .  S
C765        C766   1.415       .  A
C766       Br767   1.918       .  S
C771        C772   1.401       .  A
C771        C776   1.409       .  A
C771        H778   1.083       .  S
C772        C773   1.417       .  A
C773        C774   1.409       .  A
C773       Br780   1.911       .  S
C774        C775   1.403       .  A
C774        H779   1.084       .  S
C775        C776   1.417       .  A
C776       Br777   1.903       .  S
C781       C1182   1.398       .  A
C781        C786   1.397       .  A
C781        H788   1.084       .  S
C782        C783   1.413       .  A
C783        C784   1.404       .  A
C783       Br790   1.908   1_655  S
C784        C785   1.401       .  A
C784        H789   1.083       .  S
C786       C1185   1.414       .  A
C786       Br787   1.911       .  S
C791        C796   1.386       .  A
C791        H798   1.076       .  S
C792       C1191   1.388       .  A
C792        C793   1.410       .  A
C793        C794   1.396       .  A
C793       Br800   1.904       .  S
C794        C795   1.394       .  A
C794        H799   1.083       .  S
C795       C1196   1.420       .  A
C795        N817   1.429       .  S
C796       Br797   1.925       .  S
C801        C803   1.555       .  S
C801        C805   1.519       .  S
C801        C804   1.581       .  S
C801        C824   1.686       .  S
C802        C806   1.548       .  S
C802        C808   1.524       .  S
C802        C807   1.579       .  S
C802        C825   1.685       .  S
C803        C811   1.399       .  A
C804        C815   1.382       .  A
C805        C819   1.381       .  A
C806        C809   1.398       .  A
C807        C813   1.389       .  A
C808        C816   1.377       .  A
C809        N810   1.338       .  A
C809        H822   1.078       .  S
N810        N948   1.417   1_655  S
C811        H812   1.079       .  S
C813        H823   1.074       .  S
N814        C815   1.351       .  A
N814       C1185   1.444       .  S
C815        H821   1.060       .  S
C816        H818   1.076       .  S
N817        C819   1.337       .  A
C819        H820   1.080       .  S
C824        C826   1.548       .  S
C824        C828   1.531       .  S
C824        C827   1.582       .  S
C825        C829   1.554       .  S
C825        C831   1.519       .  S
C825        C830   1.586       .  S
C826        C834   1.397       .  A
C826        C829   1.427       .  A
C827        C838   1.390       .  A
C827        C830   1.434       .  A
C828        C842   1.380       .  A
C828        C831   1.403       .  A
C829        C832   1.399       .  A
C830        C836   1.389       .  A
C831        C839   1.383       .  A
C832        N833   1.341       .  A
C832        H845   1.079       .  S
N833        C834   1.339       .  A
N833        N971   1.415       .  S
C834        H835   1.078       .  S
C836        N837   1.352       .  A
C836        H846   1.063       .  S
N837        C838   1.350       .  A
N837       C1172   1.450       .  S
C838        H844   1.072       .  S
C839        N840   1.336       .  A
C839        H841   1.080       .  S
N840        C842   1.345       .  A
N840       C1162   1.434       .  S
C842        H843   1.075       .  S
C847        C849   1.556       .  S
C847        C851   1.547       .  S
C847        C850   1.542       .  S
C847        C871   1.669       .  S
C848        C852   1.570       .  S
C848        C854   1.540       .  S
C848        C853   1.532       .  S
C848        C870   1.667       .  S
C849        C857   1.395       .  A
C850        C861   1.385       .  A
C851        C865   1.395       .  A
C852        C855   1.385       .  A
C853        C859   1.385       .  A
C854        C862   1.392       .  A
C855        N856   1.357   1_556  A
C855        H868   1.080       .  S
N856        N902   1.420   1_545  S
C857        H858   1.081       .  S
C859        H869   1.078   1_545  S
N860        C861   1.347   1_565  A
C861        H867   1.080   1_545  S
C862        H864   1.077       .  S
N863        C865   1.336       .  A
N863       C1142   1.432       .  S
C865        H866   1.078       .  S
C870        C872   1.537       .  S
C870        C874   1.564       .  S
C870        C873   1.568       .  S
C871        C875   1.544       .  S
C871        C877   1.551       .  S
C871        C876   1.576       .  S
C872        C880   1.388   1_545  A
C872        C875   1.397       .  A
C873        C884   1.386       .  A
C873        C876   1.428       .  A
C874        C888   1.408       .  A
C874        C877   1.427       .  A
C875        C878   1.391   1_545  A
C876        C882   1.386       .  A
C877        C885   1.398       .  A
C878        N879   1.353       .  A
C878        H891   1.079       .  S
N879        C880   1.351       .  A
N879        N925   1.419       .  S
C880        H881   1.078       .  S
C882        N883   1.355       .  A
C882        H892   1.066       .  S
N883        C884   1.351       .  A
N883       C1135   1.440       .  S
C884        H890   1.080       .  S
C885        N886   1.333       .  A
C885        H887   1.075       .  S
N886        C888   1.334       .  A
N886       C1125   1.440       .  S
C888        H889   1.078       .  S
C893        C895   1.526       .  S
C893        C897   1.551       .  S
C893        C896   1.585       .  S
C893        C917   1.675       .  S
C894        C898   1.539       .  S
C894        C900   1.557       .  S
C894        C899   1.581       .  S
C894        C916   1.678       .  S
C895        C903   1.386       .  A
C896        C907   1.397       .  A
C897        C911   1.398       .  A
C898        C901   1.388       .  A
C899        C905   1.387       .  A
C900        C908   1.403       .  A
C901        N902   1.352   1_556  A
C901        H914   1.078       .  S
C903        H904   1.077       .  S
C905        H915   1.061       .  S
N906        C907   1.353       .  A
C907        H913   1.076       .  S
C908        H910   1.076       .  S
N909        C911   1.334       .  A
N909       C1102   1.434       .  S
C911        H912   1.078       .  S
C916        C918   1.574       .  S
C916        C920   1.551       .  S
C916        C919   1.532       .  S
C917        C921   1.576       .  S
C917        C923   1.543       .  S
C917        C922   1.519       .  S
C918        C926   1.387       .  A
C918        C921   1.435       .  A
C919        C930   1.385       .  A
C919        C922   1.399       .  A
C920        C934   1.398       .  A
C920        C923   1.427       .  A
C921        C924   1.388       .  A
C922        C928   1.379       .  A
C923        C931   1.396       .  A
C924        N925   1.356       .  A
C924        H937   1.080       .  S
N925        C926   1.357       .  A
C926        H927   1.080       .  S
C928        N929   1.336       .  A
C928        H938   1.080       .  S
N929        C930   1.345       .  A
N929       C1092   1.432       .  S
C930        H936   1.079       .  S
C931        N932   1.332       .  A
C931        H933   1.078       .  S
N932        C934   1.335       .  A
N932       C1082   1.430       .  S
C934        H935   1.079       .  S
C939        C941   1.559       .  S
C939        C943   1.533       .  S
C939        C942   1.580       .  S
C939        C963   1.686       .  S
C940        C944   1.547       .  S
C940        C946   1.519       .  S
C940        C945   1.584       .  S
C940        C962   1.682       .  S
C941        C949   1.402       .  A
C942        C953   1.390       .  A
C943        C957   1.385       .  A
C944        C947   1.397       .  A
C945        C951   1.388       .  A
C946        C954   1.379       .  A
C947        H960   1.078       .  S
N948        C949   1.343       .  A
C949        H950   1.078       .  S
C951        H961   1.073       .  S
N952        C953   1.353       .  A
N952       C1062   1.445       .  S
C953        H959   1.079       .  S
C954        H956   1.080       .  S
N955        C957   1.345   1_554  A
C957        H958   1.080       .  S
C962        C964   1.552       .  S
C962        C966   1.581       .  S
C962        C965   1.528       .  S
C963        C967   1.550       .  S
C963        C969   1.583       .  S
C963        C968   1.525       .  S
C964        C972   1.400   1_455  A
C964        C967   1.428       .  A
C965        C976   1.381       .  A
C965        C968   1.402       .  A
C966        C980   1.394       .  A
C966        C969   1.432       .  A
C967        C970   1.400   1_455  A
C968        C974   1.384       .  A
C969        C977   1.380       .  A
C970        N971   1.338       .  A
C970        H983   1.079       .  S
N971        C972   1.340       .  A
C972        H973   1.078       .  S
C974        N975   1.341       .  A
C974        H984   1.080       .  S
N975        C976   1.344       .  A
N975       C1042   1.432       .  S
C976        H982   1.077       .  S
C977        N978   1.350       .  A
C977        H979   1.055       .  S
N978        C980   1.353       .  A
N978       C1052   1.448   1_455  S
C980        H981   1.075       .  S
O985        V993   1.919       .  S
O986        V993   1.907   1_455  S
O987        V993   1.903   1_545  S
O987        C997   1.262       .  A
O988        V993   1.889   1_455  S
O988        C998   1.255       .  A
O989        V994   1.896       .  S
O990        V994   1.907   1_545  S
O991        V994   1.896   1_455  S
O991        C996   1.258       .  A
O992        V994   1.912       .  S
O992        C995   1.262   1_556  A
C995       C1115   1.495       .  S
C996       C1152   1.471       .  S
C997       C1182   1.482       .  S
C998       C1075   1.461       .  S
O999       V1007   1.891   1_545  S
O999       C1009   1.255       .  A
O1000      V1007   1.904       .  S
O1000      C1010   1.260       .  A
O1001      V1007   1.921   1_445  S
O1001      C1011   1.264       .  A
O1002      V1007   1.907       .  S
O1002      C1012   1.265       .  A
O1003      V1008   1.882       .  S
O1003      C1012   1.252       .  A
O1004      V1008   1.903   1_455  S
O1004      C1011   1.259   1_565  A
O1005      V1008   1.921       .  S
O1005      C1010   1.266       .  A
O1006      V1008   1.909   1_545  S
O1006      C1009   1.266       .  A
V1007      V1008   2.070       .  T
C1009      C1165   1.467       .  S
C1010      C1055   1.490       .  S
C1011      C1132   1.485       .  S
C1012      C1095   1.458       .  S
O1013      V1021   1.896       .  S
O1014      V1021   1.911       .  S
O1015      V1021   1.898       .  S
O1015      C1025   1.263       .  A
O1016      V1021   1.916       .  S
O1016      C1026   1.264       .  A
O1017      V1022   1.904       .  S
O1018      V1022   1.890       .  S
O1019      V1022   1.910       .  S
O1019      C1024   1.263       .  A
O1020      V1022   1.902       .  S
O1020      C1023   1.264       .  A
C1023      C1192   1.461   1_556  S
C1024      C1065   1.487       .  S
C1025      C1145   1.463       .  S
C1026      C1105   1.478       .  S
O1027      V1035   1.912       .  S
O1027      C1037   1.265       .  A
O1028      V1035   1.899       .  S
O1028      C1038   1.260       .  A
O1029      V1035   1.912       .  S
O1029      C1039   1.264       .  A
O1030      V1035   1.904       .  S
O1030      C1040   1.263       .  A
O1031      V1036   1.894       .  S
O1031      C1040   1.256       .  A
O1032      V1036   1.910       .  S
O1032      C1039   1.263       .  A
O1033      V1036   1.893       .  S
O1033      C1038   1.261       .  A
O1034      V1036   1.911       .  S
O1034      C1037   1.261       .  A
V1035      V1036   2.061       .  T
C1037      C1122   1.484       .  S
C1038      C1085   1.462       .  S
C1039      C1175   1.492       .  S
C1040      C1045   1.459       .  S
C1041      C1042   1.408       .  A
C1041      C1046   1.389       .  A
C1041      H1048   1.081       .  S
C1042      C1043   1.399       .  A
C1043      C1044   1.401       .  A
C1043     Br1050   1.914       .  S
C1044      C1045   1.408       .  A
C1044      H1049   1.083       .  S
C1045      C1046   1.398       .  A
C1046     Br1047   1.916       .  S
C1051      C1052   1.407   1_455  A
C1051      C1056   1.405       .  A
C1051      H1058   1.083       .  S
C1052      C1053   1.406       .  A
C1053      C1054   1.408       .  A
C1053     Br1060   1.914       .  S
C1054      C1055   1.406       .  A
C1054      H1059   1.080       .  S
C1055      C1056   1.410   1_655  A
C1056     Br1057   1.917       .  S
C1061      C1062   1.399       .  A
C1061      C1066   1.404       .  A
C1061      H1068   1.083       .  S
C1063      C1064   1.406       .  A
C1063     Br1070   1.914       .  S
C1064      H1069   1.083       .  S
C1065      C1066   1.414       .  A
C1066     Br1067   1.906       .  S
C1071      C1076   1.402       .  A
C1071      H1078   1.083       .  S
C1072      C1073   1.415       .  A
C1073      C1074   1.386       .  A
C1073     Br1080   1.920   1_455  S
C1074      C1075   1.392       .  A
C1074      H1079   1.082   1_455  S
C1076     Br1077   1.917       .  S
C1081      C1082   1.404       .  A
C1081      C1086   1.387       .  A
C1081      H1088   1.081       .  S
C1082      C1083   1.402       .  A
C1083      C1084   1.400       .  A
C1083     Br1090   1.914       .  S
C1084      C1085   1.406       .  A
C1084      H1089   1.083       .  S
C1085      C1086   1.401       .  A
C1086     Br1087   1.911       .  S
C1091      C1092   1.397       .  A
C1091      C1096   1.398       .  A
C1091      H1098   1.083   1_565  S
C1092      C1093   1.419       .  A
C1093      C1094   1.389       .  A
C1093     Br1100   1.921       .  S
C1094      C1095   1.391       .  A
C1094      H1099   1.084       .  S
C1095      C1096   1.414       .  A
C1096     Br1097   1.921   1_565  S
C1101      C1102   1.394       .  A
C1101      C1106   1.401       .  A
C1101      H1108   1.083       .  S
C1103      C1104   1.398       .  A
C1103     Br1110   1.915       .  S
C1104      H1109   1.084       .  S
C1105      C1106   1.415       .  A
C1106     Br1107   1.905       .  S
C1111      C1112   1.398   1_556  A
C1111      C1116   1.407       .  A
C1111      H1118   1.083       .  S
C1113      C1114   1.406       .  A
C1113     Br1120   1.913       .  S
C1114      H1119   1.083       .  S
C1115      C1116   1.414   1_554  A
C1116     Br1117   1.901       .  S
C1121      C1122   1.408       .  A
C1121      C1126   1.406       .  A
C1121      H1128   1.078       .  S
C1122      C1123   1.406       .  A
C1123      C1124   1.401       .  A
C1123     Br1130   1.914       .  S
C1124      C1125   1.406       .  A
C1124      H1129   1.083       .  S
C1125      C1126   1.403       .  A
C1126     Br1127   1.913       .  S
C1131      C1132   1.402   1_565  A
C1131      C1136   1.404   1_565  A
C1131      H1138   1.082       .  S
C1132      C1133   1.412       .  A
C1133      C1134   1.402       .  A
C1133     Br1140   1.905       .  S
C1134      C1135   1.396       .  A
C1134      H1139   1.083       .  S
C1135      C1136   1.411       .  A
C1136     Br1137   1.914   1_545  S
C1141      C1142   1.406       .  A
C1141      C1146   1.386       .  A
C1141      H1148   1.080       .  S
C1143      C1144   1.395       .  A
C1143     Br1150   1.917       .  S
C1144      H1149   1.084       .  S
C1145      C1146   1.401       .  A
C1146     Br1147   1.917       .  S
C1151      C1152   1.409       .  A
C1151      C1156   1.403       .  A
C1151      H1158   1.083       .  S
C1153      C1154   1.389       .  A
C1153     Br1160   1.910       .  S
C1154      H1159   1.078       .  S
C1155      C1156   1.401   1_554  A
C1156     Br1157   1.913       .  S
C1161      C1162   1.400       .  A
C1161      C1166   1.403       .  A
C1161      H1168   1.083       .  S
C1162      C1163   1.415       .  A
C1163      C1164   1.385       .  A
C1163     Br1170   1.923       .  S
C1164      C1165   1.389       .  A
C1164      H1169   1.073       .  S
C1165      C1166   1.416       .  A
C1166     Br1167   1.921       .  S
C1171      C1172   1.401       .  A
C1171      C1176   1.405       .  A
C1171      H1178   1.083       .  S
C1172      C1173   1.416       .  A
C1173      C1174   1.404       .  A
C1173     Br1180   1.911       .  S
C1174      C1175   1.401       .  A
C1174      H1179   1.083       .  S
C1175      C1176   1.413       .  A
C1176     Br1177   1.906       .  S
C1181      C1186   1.400       .  A
C1181      H1188   1.084       .  S
C1182      C1183   1.413       .  A
C1183      C1184   1.405       .  A
C1183     Br1190   1.909   1_655  S
C1184      C1185   1.401       .  A
C1184      H1189   1.083       .  S
C1186     Br1187   1.912       .  S
C1191      C1196   1.386       .  A
C1191      H1198   1.072       .  S
C1192      C1193   1.411       .  A
C1193      C1194   1.398       .  A
C1193     Br1200   1.907       .  S
C1194      C1195   1.396       .  A
C1194      H1199   1.083       .  S
C1196     Br1197   1.926       .  S
