geometry optimzed in LAMMPS
_audit_creation_date              2020-12-01 
_audit_creation_method            'lammps2cif' 
_symmetry_space_group_name_H-M    'P1' 
_symmetry_Int_Tables_number       1 
_symmetry_cell_setting            triclinic 
loop_ 
_symmetry_equiv_pos_as_xyz 
  x,y,z 
_cell_length_a                    44.66344574 
_cell_length_b                    44.971183090278494 
_cell_length_c                    44.932395217938314 
_cell_angle_alpha                 90.03987606590613 
_cell_angle_beta                  89.96594280737123 
_cell_angle_gamma                 90.03670945048182 
loop_ 
_atom_site_label 
_atom_site_type_symbol 
_atom_site_fract_x 
_atom_site_fract_y 
_atom_site_fract_z 
_atom_site_charge 
C1          C  0.99873001  0.08893273  0.17736922     0.43500
N2          N  0.48663522  0.06291081  0.21406619     0.02400
C3          C  0.07411806  0.47060015  0.30236956    -0.05500
H4          H  0.07451952  0.44334685  0.18866657     0.07900
C5          C  0.46645602  0.42505473  0.19308248    -0.05800
Co6        Co  0.03732567  0.03583702  0.24682227     0.74200
N7          N  0.05656326  0.47892985  0.21505026    -0.25000
Co8        Co  0.03224441  0.45802627  0.24843230     0.74100
C9          C  0.99082087  0.40946752  0.18038162     0.43600
N10         N  0.43453219  0.49152707  0.21576868     0.02000
N11         N  0.00576050  0.43622340  0.21699777     0.02100
N12         N  0.07658470  0.02145177  0.30058185    -0.45900
H13         H  0.04861622  0.07770717  0.18593631     0.07900
N14         N  0.05793222  0.00960374  0.21420431     0.02400
N15         N  0.00728617  0.43788604  0.28188443     0.02100
C16         C  0.49312340  0.40970590  0.31531050     0.43700
N17         N  0.43618111  0.02011673  0.21552119    -0.24500
C18         C  0.02676736  0.07749704  0.30194306    -0.05400
N19         N  0.47660762  0.08108376  0.19322171    -0.45600
N20         N  0.01776099  0.41987068  0.30269581    -0.45800
C21         C  0.50260409  0.09200990  0.31447009     0.43500
N22         N  0.05896460  0.01093754  0.27939599     0.02400
N23         N  0.43668581  0.02147516  0.27998635    -0.24500
N24         N  0.01445604  0.05989395  0.21436165    -0.25000
N25         N  0.43472482  0.49234662  0.28112394     0.02000
H26         H  0.41813204  0.05683685  0.30646403     0.07900
H27         H  0.44321666  0.41987964  0.30593166     0.07900
N28         N  0.05770509  0.48101395  0.27972316    -0.25000
N29         N  0.47747395  0.44125711  0.21566759    -0.24700
N30         N  0.48748657  0.06404197  0.27886550     0.02400
C31         C  0.08427138  0.99447075  0.17706721     0.43800
C32         C  0.42027954  0.03103459  0.19284271    -0.05900
N33         N  0.47776662  0.44135519  0.28050498    -0.24700
H34         H  0.44295654  0.42217019  0.18796338     0.07900
N35         N  0.07505564  0.01894620  0.19201866    -0.45900
H36         H  0.41843954  0.05430265  0.18713877     0.07900
C37         C  0.40872094  0.50814434  0.31826524     0.43600
C38         C  0.02515040  0.07567834  0.19143686    -0.05400
Co39       Co  0.46130938  0.04260951  0.24712333     0.73800
N40         N  0.41725641  0.48128352  0.19413460    -0.45600
C41         C  0.08747244  0.49700825  0.31590173     0.43900
N42         N  0.47798862  0.08227259  0.29998157    -0.45600
Co43       Co  0.45550339  0.46619866  0.24835109     0.73900
C44         C  0.46676695  0.42363533  0.30184825    -0.05900
C45         C  0.07254029  0.46691963  0.19292576    -0.05500
N46         N  0.01562485  0.06109684  0.27954334    -0.25000
N47         N  0.01533645  0.41855143  0.19541730    -0.45800
H48         H  0.07640766  0.44742191  0.30837058     0.07900
C49         C  0.42042583  0.03333114  0.30197414    -0.05900
Cl50       Cl  0.99587456  0.00032088  0.24805607    -0.48900
C51         C  0.40702832  0.00496661  0.17873312     0.43600
H52         H  0.05030358  0.08047632  0.30670139     0.07900
N53         N  0.41745203  0.48334624  0.30343361    -0.45600
C54         C  0.08770388  0.18274939  0.50528768     0.43500
N55         N  0.05909975  0.21777746  0.48990392     0.02400
C56         C  0.46743988  0.30781990  0.07308045    -0.05500
H57         H  0.44517021  0.19343122  0.07831606     0.07900
C58         C  0.42333700  0.19290250  0.46794187    -0.05800
Co59       Co  0.03167129  0.25228504  0.03930215     0.74200
N60         N  0.47950899  0.22046940  0.05884585    -0.25000
Co61       Co  0.45693726  0.25163597  0.03317972     0.74100
C62         C  0.41094396  0.17829334  0.49420295     0.43600
N63         N  0.48807800  0.21685674  0.43516167     0.02000
N64         N  0.43658301  0.21788755  0.00841606     0.02100
N65         N  0.01543054  0.30652626  0.07714334    -0.45900
H66         H  0.07594332  0.19382604  0.05342472     0.07900
N67         N  0.00634133  0.21998803  0.06127736     0.02400
N68         N  0.43521804  0.28281866  0.00679921     0.02100
C69         C  0.40590974  0.31768404  0.49157721     0.43700
N70         N  0.01555626  0.21638746  0.43962065    -0.24500
C71         C  0.07255192  0.30708567  0.02648124    -0.05400
N72         N  0.07742200  0.19659111  0.48067441    -0.45600
N73         N  0.41686767  0.30399919  0.01607448    -0.45800
C74         C  0.08823608  0.31867245  0.50086771     0.43500
N75         N  0.00565056  0.28498726  0.05954856     0.02400
N76         N  0.01625616  0.28129180  0.43770302    -0.24500
N77         N  0.05671520  0.21966599  0.01810018    -0.25000
N78         N  0.48629054  0.28141035  0.43352045     0.02000
H79         H  0.05068721  0.30750409  0.41686453     0.07900
H80         H  0.41617975  0.30704726  0.44226239     0.07900
N81         N  0.47865726  0.28524976  0.05702621    -0.25000
N82         N  0.43831659  0.21635570  0.47858103    -0.24700
N83         N  0.05967864  0.28241645  0.48796634     0.02400
C84         C  0.99243299  0.18338986  0.08897323     0.43800
C85         C  0.02633850  0.19371494  0.42345805    -0.05900
N86         N  0.43609799  0.28111191  0.47710734    -0.24700
H87         H  0.42143230  0.18706549  0.44467213     0.07900
N88         N  0.01648184  0.19882067  0.07909226    -0.45900
H89         H  0.04983075  0.18885455  0.42025140     0.07900
C90         C  0.49951576  0.31643997  0.40396122     0.43600
C91         C  0.07311772  0.19772509  0.02986031    -0.05400
Co92       Co  0.03815689  0.24943603  0.46337551     0.73800
N93         N  0.47848628  0.19552068  0.41728371    -0.45600
C94         C  0.49360465  0.32237868  0.08619370     0.43900
N95         N  0.07787070  0.30305198  0.47733553    -0.45600
Co96       Co  0.46173177  0.24895865  0.45565528     0.73900
C97         C  0.41919833  0.30290056  0.46569618    -0.05900
C98         C  0.46862715  0.19861717  0.07593196    -0.05500
N99         N  0.05615382  0.28432525  0.01621283    -0.25000
N100        N  0.41959714  0.19615179  0.01890838    -0.45800
H101        H  0.44389199  0.31252131  0.07621291     0.07900
C102        C  0.02728738  0.30297732  0.42032704    -0.05900
Cl103      Cl  0.99673324  0.25096239  0.49906759    -0.49500
C104        C  0.99992537  0.17942827  0.41044224     0.43600
H105        H  0.07547737  0.31236630  0.04975692     0.07900
N106        N  0.47566225  0.30152250  0.41482570    -0.45600
C107        C  0.31621846  0.49735090  0.08781911     0.43500
N108        N  0.27988544  0.01162888  0.06034582     0.02400
C109        C  0.19312894  0.42440959  0.46644242    -0.05500
H110        H  0.30757426  0.42310576  0.44309285     0.07900
C111        C  0.30011430  0.03353549  0.42038232    -0.05800
Co112      Co  0.24819536  0.45856061  0.03224374     0.74200
N113        N  0.28080530  0.44213501  0.47790070    -0.25000
Co114      Co  0.24798170  0.46660519  0.45618342     0.74100
C115        C  0.31770685  0.50948145  0.41048381     0.43600
N116        N  0.27953891  0.06337101  0.48802201     0.02000
N117        N  0.28034826  0.49350515  0.43611211     0.02100
N118        N  0.19386172  0.41999301  0.01664321    -0.45900
H119        H  0.30828092  0.44758730  0.07750636     0.07900
N120        N  0.28083638  0.43833153  0.00626482     0.02400
N121        N  0.21496371  0.49154204  0.43541650     0.02100
C122        C  0.17665234  0.00533127  0.40893726     0.43700
N123        N  0.27801175  0.06223142  0.01847119    -0.24500
C124        C  0.19318299  0.46763437  0.07307940    -0.05400
N125        N  0.30168359  0.02257986  0.07689575    -0.45600
N126        N  0.19431033  0.48104425  0.41716028    -0.45800
C127        C  0.17770309  0.99331985  0.08734279     0.43500
N128        N  0.21558494  0.43735382  0.00668896     0.02400
N129        N  0.21269642  0.05955039  0.01872673    -0.24500
N130        N  0.28053938  0.48110105  0.05720611    -0.25000
N131        N  0.21428042  0.06333091  0.48936824     0.02000
H132        H  0.18586238  0.07823251  0.05367595     0.07900
H133        H  0.18493677  0.05478782  0.42047766     0.07900
N134        N  0.21560023  0.44082078  0.47756486    -0.25000
N135        N  0.27851916  0.02171310  0.43726967    -0.24700
N136        N  0.21454228  0.00880984  0.06074097     0.02400
C137        C  0.31740558  0.41196454  0.49240995     0.43800
C138        C  0.30080558  0.07838915  0.02940019    -0.05900
N139        N  0.21353846  0.02075725  0.43841892    -0.24700
H140        H  0.30455110  0.05699873  0.41787128     0.07900
N141        N  0.30209480  0.42011835  0.01565047    -0.45900
H142        H  0.30632065  0.08016940  0.05257082     0.07900
C143        C  0.17883674  0.09147290  0.50486534     0.43600
C144        C  0.30298277  0.47077781  0.07418335    -0.05400
Co145      Co  0.24624633  0.03593988  0.04014979     0.73800
N146        N  0.30138834  0.08014210  0.47744674    -0.45600
C147        C  0.17875979  0.41091080  0.49253266     0.43900
N148        N  0.19242006  0.01786882  0.07809839    -0.45600
Co149      Co  0.24634336  0.04283284  0.46290492     0.73900
C150        C  0.19060856  0.03152642  0.42249894    -0.05900
C151        C  0.30313896  0.42582843  0.46658391    -0.05500
N152        N  0.21539635  0.47960805  0.05716199    -0.25000
N153        N  0.30294680  0.48468609  0.41915092    -0.45800
H154        H  0.18794426  0.42228764  0.44307840     0.07900
C155        C  0.19008529  0.07539307  0.03019313    -0.05900
Cl156      Cl  0.24735957  0.00110933  0.49770828    -0.48900
C157        C  0.31793244  0.08904527  0.50092447     0.43600
H158        H  0.18867558  0.44412035  0.07476223     0.07900
N159        N  0.19301666  0.08160924  0.48021901    -0.45600
C160        C  0.38018824  0.36094684  0.46703955     0.24600
C161        C  0.38427692  0.34271146  0.49214999    -0.23500
C162        C  0.37820216  0.35854261  0.01721100     0.19500
C163        C  0.35639185  0.38087796  0.01711431     0.24600
C164        C  0.34124436  0.38897855  0.49268661    -0.23400
C165        C  0.35903985  0.38381943  0.46733646     0.19500
F166        F  0.35656475  0.40116147  0.44278592    -0.13400
F167        F  0.39699717  0.35723966  0.44217423    -0.15700
F168        F  0.35186603  0.39691427  0.04234014    -0.15700
F169        F  0.39411417  0.35376621  0.04250449    -0.13400
C170        C  0.37700376  0.14604090  0.02523302     0.24600
C171        C  0.38884940  0.15380326  0.49510409    -0.23500
C172        C  0.36940439  0.14890041  0.47098474     0.19500
C173        C  0.34691031  0.12745308  0.47279485     0.24600
C174        C  0.34324090  0.11030636  0.49876790    -0.23400
C175        C  0.35399208  0.12498234  0.02736038     0.19500
F176        F  0.34387861  0.11769974  0.05485128    -0.13400
F177        F  0.38812916  0.15775772  0.05080064    -0.15700
F178        F  0.32802350  0.12437945  0.44931782    -0.15700
F179        F  0.37097206  0.16580242  0.44603026    -0.13400
C180        C  0.14158981  0.38125831  0.52176898     0.24600
C181        C  0.15437614  0.38853163  0.49404384    -0.23500
C182        C  0.14444754  0.37328604  0.46853346     0.19500
C183        C  0.12296955  0.35076549  0.47085482     0.24600
C184        C  0.11057251  0.34309661  0.49869243    -0.23400
C185        C  0.12001215  0.35890200  0.52408215     0.19500
F186        F  0.10274095  0.35776973  0.04969779    -0.13400
F187        F  0.14557126  0.39947259  0.04581476    -0.15700
F188        F  0.11478488  0.33616501  0.44567771    -0.15700
F189        F  0.15589788  0.37940718  0.44126647    -0.13400
C190        C  0.11237569  0.13980317  0.02973639     0.24600
C191        C  0.11073358  0.15913151  0.50523316    -0.23500
C192        C  0.12861772  0.15445301  0.47985659     0.19500
C193        C  0.15054603  0.13234484  0.47971448     0.24600
C194        C  0.15515680  0.11443057  0.50497092    -0.23400
C195        C  0.13369525  0.11704049  0.02971419     0.19500
F196        F  0.13685623  0.10049027  0.05474198    -0.13400
F197        F  0.09598490  0.14414679  0.05478928    -0.15700
F198        F  0.16766111  0.12899865  0.45494751    -0.15700
F199        F  0.12546062  0.17170528  0.45526766    -0.13400
C200        C  0.36379200  0.03235542  0.34263070     0.24600
C201        C  0.38679558  0.50902590  0.34316446    -0.23500
C202        C  0.38140968  0.48363179  0.36065164     0.19500
C203        C  0.35956900  0.48407022  0.38308460     0.24600
C204        C  0.34258439  0.50990181  0.38851463    -0.23400
C205        C  0.34143000  0.03232387  0.36428603     0.19500
F206        F  0.32173253  0.05528936  0.36489079    -0.13400
F207        F  0.36491546  0.05540562  0.32317934    -0.15700
F208        F  0.35513097  0.45915615  0.39955961    -0.15700
F209        F  0.39735985  0.45833169  0.35616296    -0.13400
C210        C  0.12988783  0.47480974  0.34484951     0.24600
C211        C  0.10988837  0.49845047  0.34007040    -0.23500
C212        C  0.11210094  0.52398180  0.35802166     0.19500
C213        C  0.14571043  0.02877445  0.36850979     0.24600
C214        C  0.15241411  0.00403003  0.38643260    -0.23400
C215        C  0.13653032  0.97738277  0.38179691     0.19500
F216        F  0.14181492  0.95320484  0.39910804    -0.13400
F217        F  0.12909266  0.45011370  0.32748803    -0.15700
F218        F  0.16085261  0.05474425  0.37161387    -0.15700
F219        F  0.09265706  0.54689942  0.35447460    -0.13400
C220        C  0.14870497  0.01858403  0.12778237     0.24600
C221        C  0.15281947  0.99362963  0.10928570    -0.23500
C222        C  0.13306773  0.96938031  0.11220699     0.19500
C223        C  0.11027046  0.96982194  0.13369275     0.24600
C224        C  0.10685998  0.99446574  0.15281162    -0.23400
C225        C  0.12602053  0.01901502  0.14918234     0.19500
F226        F  0.12354312  0.04326679  0.16701951    -0.13400
F227        F  0.16727120  0.04242314  0.12592873    -0.15700
F228        F  0.12173889  0.44097652  0.16358488    -0.15700
F229        F  0.16400261  0.44128268  0.12169846    -0.13400
C230        C  0.38369093  0.47871592  0.13581707     0.24600
C231        C  0.38577573  0.00424184  0.15367893    -0.23500
C232        C  0.36703734  0.02867093  0.14792835     0.19500
C233        C  0.34601215  0.02739838  0.12507103     0.24600
C234        C  0.34019482  0.49941347  0.11054481    -0.23400
C235        C  0.36140802  0.47655787  0.11400634     0.19500
F236        F  0.36107742  0.45235038  0.09596679    -0.13400
F237        F  0.40403103  0.45644647  0.13833461    -0.15700
F238        F  0.32792356  0.05128055  0.12079389    -0.15700
F239        F  0.36782307  0.05335132  0.16530297    -0.13400
C240        C  0.02352758  0.11400910  0.36209319     0.24600
C241        C  0.50242866  0.11414922  0.33884313    -0.23500
C242        C  0.47749713  0.13280659  0.34306463     0.19500
C243        C  0.47755932  0.15425403  0.36557552     0.24600
C244        C  0.99910671  0.15522620  0.38784875    -0.23400
C245        C  0.02327671  0.13535556  0.38481165     0.19500
F246        F  0.04656650  0.13607681  0.40416962    -0.13400
F247        F  0.04703315  0.09498293  0.36041338    -0.15700
F248        F  0.45332940  0.17226665  0.36840985    -0.15700
F249        F  0.45325266  0.13092305  0.32493244    -0.13400
C250        C  0.46939150  0.37859032  0.35558406     0.24600
C251        C  0.49439629  0.38561446  0.33781307    -0.23500
C252        C  0.02131607  0.38327148  0.35869784     0.19500
C253        C  0.02322723  0.36079200  0.38015788     0.24600
C254        C  0.49779098  0.33992696  0.38096399    -0.23400
C255        C  0.47104938  0.35590593  0.37679197     0.19500
F256        F  0.44651802  0.35001761  0.39365613    -0.13400
F257        F  0.44340378  0.39396386  0.35310134    -0.15700
F258        F  0.04814518  0.35926595  0.39734834    -0.15700
F259        F  0.04462513  0.40241921  0.35554618    -0.13400
C260        C  0.47151974  0.38986234  0.13195376     0.24600
C261        C  0.99112750  0.38763059  0.15577729    -0.23500
C262        C  0.01158498  0.36390985  0.15626631     0.19500
C263        C  0.01170601  0.34274797  0.13346334     0.24600
C264        C  0.49406585  0.34617590  0.10897592    -0.23400
C265        C  0.47174387  0.36821103  0.10952389     0.19500
F266        F  0.45050257  0.36926136  0.08795588    -0.13400
F267        F  0.45012797  0.41125607  0.13134241    -0.15700
F268        F  0.03095982  0.31946931  0.13530341    -0.15700
F269        F  0.03074936  0.36052227  0.17946399    -0.13400
C270        C  0.02341512  0.12685478  0.14385773     0.24600
C271        C  0.99746744  0.11171689  0.15332479    -0.23500
C272        C  0.47185615  0.12790933  0.14763606     0.19500
C273        C  0.47032818  0.15078393  0.12670060     0.24600
C274        C  0.99394217  0.15813699  0.11046749    -0.23400
C275        C  0.02165922  0.14969969  0.12282034     0.19500
F276        F  0.04733663  0.16389198  0.11504757    -0.13400
F277        F  0.05066924  0.12041856  0.15541398    -0.15700
F278        F  0.44328303  0.16343680  0.12157110    -0.15700
F279        F  0.44607521  0.11920126  0.16109961    -0.13400
C280        C  0.99919580  0.09050253  0.67846878     0.43500
N281        N  0.48688239  0.06287629  0.71414701     0.02400
C282        C  0.07292966  0.47367854  0.80243995    -0.05500
H283        H  0.07456354  0.44691785  0.68850181     0.07900
C284        C  0.46607522  0.42407075  0.69328084    -0.05800
Co285      Co  0.03822303  0.03591433  0.74643798     0.74200
N286        N  0.05610049  0.48224941  0.71513157    -0.25000
Co287      Co  0.03161288  0.46129100  0.74838133     0.74100
C288        C  0.99141407  0.41052211  0.68145626     0.43600
N289        N  0.43444082  0.48911961  0.71550536     0.02000
N290        N  0.00584073  0.43911275  0.71682851     0.02100
N291        N  0.07793923  0.02096265  0.80012675    -0.45900
H292        H  0.04934292  0.08064001  0.68725588     0.07900
N293        N  0.05826495  0.00971007  0.71384498     0.02400
N294        N  0.00610905  0.44125719  0.78161242     0.02100
C295        C  0.49543373  0.41076939  0.81695489     0.43700
N296        N  0.43584054  0.02014052  0.71655193    -0.24500
C297        C  0.02843296  0.07857934  0.80022601    -0.05400
N298        N  0.47687651  0.08083591  0.69305100    -0.45600
N299        N  0.01620402  0.42316755  0.80252387    -0.45800
C300        C  0.50369459  0.09194358  0.81493000     0.43500
N301        N  0.06006869  0.01082409  0.77891914     0.02400
N302        N  0.43768559  0.02206704  0.78129501    -0.24500
N303        N  0.01536446  0.06022976  0.71420749    -0.25000
N304        N  0.43470615  0.49002714  0.78041276     0.02000
H305        H  0.42100504  0.05792721  0.80811349     0.07900
H306        H  0.44520990  0.42002376  0.80845088     0.07900
N307        N  0.05661368  0.48428412  0.77986805    -0.25000
N308        N  0.47768570  0.43969703  0.71579643    -0.24700
N309        N  0.48825416  0.06437040  0.77906070     0.02400
C310        C  0.08478085  0.99495954  0.67681149     0.43800
C311        C  0.41967244  0.03034160  0.69360374    -0.05900
N312        N  0.47883388  0.44019553  0.78068122    -0.24700
H313        H  0.44236688  0.42169581  0.68915948     0.07900
N314        N  0.07552144  0.01925118  0.69190138    -0.45900
H315        H  0.41748849  0.05350769  0.68767639     0.07900
C316        C  0.40655774  0.50506781  0.81597571     0.43600
C317        C  0.02587431  0.07719717  0.69202685    -0.05400
Co318      Co  0.46166834  0.04286955  0.74768902     0.73800
N319        N  0.41763585  0.47837716  0.69379690    -0.45600
C320        C  0.08612520  0.49992555  0.81626561     0.43900
N321        N  0.47899499  0.08248067  0.80038623    -0.45600
Co322      Co  0.45586992  0.46429902  0.74825630     0.73900
C323        C  0.46857231  0.42355339  0.80327127    -0.05900
C324        C  0.07189293  0.47044642  0.69270665    -0.05500
N325        N  0.01687565  0.06136091  0.77878670    -0.25000
N326        N  0.01573922  0.42051927  0.69620936    -0.45800
H327        H  0.07538510  0.45043743  0.80818552     0.07900
C328        C  0.42254126  0.03433055  0.80380565    -0.05900
Cl329      Cl  0.99649523  0.00057529  0.74817020    -0.48900
C330        C  0.40622166  0.00374623  0.68023137     0.43600
H331        H  0.05206710  0.08187670  0.80421588     0.07900
N332        N  0.41666995  0.48053082  0.80181524    -0.45600
C333        C  0.08620883  0.18239264  0.00427033     0.43500
N334        N  0.05908355  0.21867853  0.98885702     0.02400
C335        C  0.46567707  0.30709141  0.57145984    -0.05500
H336        H  0.44506519  0.19258786  0.57755681     0.07900
C337        C  0.42323165  0.19398130  0.96882470    -0.05800
Co338      Co  0.03246028  0.25193368  0.54043091     0.74200
N339        N  0.47915468  0.21974211  0.55798241    -0.25000
Co340      Co  0.45601833  0.25062814  0.53251375     0.74100
C341        C  0.41034317  0.17983257  0.99534461     0.43600
N342        N  0.48930579  0.21730776  0.93570623     0.02000
N343        N  0.43599086  0.21668845  0.50783381     0.02100
N344        N  0.01720226  0.30605690  0.57917188    -0.45900
H345        H  0.07787384  0.19434702  0.55446125     0.07900
N346        N  0.00658009  0.22024968  0.56229911     0.02400
N347        N  0.43381123  0.28175585  0.50634491     0.02100
C348        C  0.40682664  0.31803087  0.99146843     0.43700
N349        N  0.01622099  0.21708214  0.93816541    -0.24500
C350        C  0.07474165  0.30539966  0.52749645    -0.05400
N351        N  0.07662998  0.19681278  0.97966682    -0.45600
N352        N  0.41589503  0.30316242  0.51592144    -0.45800
C353        C  0.08555744  0.32086869  0.99986636     0.43500
N354        N  0.00716589  0.28504995  0.56103279     0.02400
N355        N  0.01547117  0.28181917  0.93628538    -0.24500
N356        N  0.05698323  0.21894217  0.51916048    -0.25000
N357        N  0.48828430  0.28224701  0.93450188     0.02000
H358        H  0.04964840  0.30894888  0.91660034     0.07900
H359        H  0.41841594  0.30781867  0.94236949     0.07900
N360        N  0.47738321  0.28442370  0.55604250    -0.25000
N361        N  0.43898022  0.21718168  0.97917138    -0.24700
N362        N  0.05840397  0.28358752  0.98695757     0.02400
C363        C  0.99229502  0.18403630  0.58996481     0.43800
C364        C  0.02764868  0.19500902  0.92169673    -0.05900
N365        N  0.43769756  0.28194088  0.97757623    -0.24700
H366        H  0.42090251  0.18845222  0.94554209     0.07900
N367        N  0.01654869  0.19893034  0.57996416    -0.45900
H368        H  0.05126308  0.19088672  0.91842637     0.07900
C369        C  0.50217497  0.31856923  0.90675452     0.43600
C370        C  0.07423653  0.19766575  0.53091015    -0.05400
Co371      Co  0.03786206  0.25027955  0.96218545     0.73800
N372        N  0.47975881  0.19596336  0.91777428    -0.45600
C373        C  0.49152394  0.32307788  0.58370106     0.43900
N374        N  0.07583808  0.30485749  0.97634961    -0.45600
Co375      Co  0.46311911  0.24965081  0.95623463     0.73900
C376        C  0.42076355  0.30346750  0.96586507    -0.05900
C377        C  0.46852017  0.19764593  0.57490820    -0.05500
N378        N  0.05751322  0.28328820  0.51722889    -0.25000
N379        N  0.41963583  0.19435435  0.51813916    -0.45800
H380        H  0.44199113  0.31105326  0.57400136     0.07900
C381        C  0.02626780  0.30379596  0.91913499    -0.05900
Cl382      Cl  0.99626058  0.25074178  0.99762999    -0.49500
C383        C  0.00161584  0.18042537  0.90836873     0.43600
H384        H  0.07785331  0.31047052  0.55077325     0.07900
N385        N  0.47804429  0.30337663  0.91668837    -0.45600
C386        C  0.31721803  0.49592044  0.58636096     0.43500
N387        N  0.28069754  0.01023885  0.55986286     0.02400
C388        C  0.19237310  0.42425555  0.96652503    -0.05500
H389        H  0.30667764  0.42184430  0.94195996     0.07900
C390        C  0.30173336  0.03492169  0.92346841    -0.05800
Co391      Co  0.24756017  0.45911164  0.53277990     0.74200
N392        N  0.28026048  0.44091256  0.97703963    -0.25000
Co393      Co  0.24720177  0.46531684  0.95547965     0.74100
C394        C  0.31569295  0.50642047  0.90750095     0.43600
N395        N  0.27777989  0.06489907  0.98929041     0.02000
N396        N  0.27924636  0.49143304  0.93459298     0.02100
N397        N  0.19405096  0.42049017  0.51657370    -0.45900
H398        H  0.30837039  0.44672818  0.57456388     0.07900
N399        N  0.28071536  0.43914006  0.50706964     0.02400
N400        N  0.21392917  0.49037941  0.93489363     0.02100
C401        C  0.17820075  0.00359547  0.90868382     0.43700
N402        N  0.28041256  0.06073521  0.51724179    -0.24500
C403        C  0.19164873  0.46854764  0.57352879    -0.05400
N404        N  0.30248413  0.02004186  0.57720001    -0.45600
N405        N  0.19258614  0.48008378  0.91726646    -0.45800
C406        C  0.17829570  0.99522998  0.58735171     0.43500
N407        N  0.21550576  0.43818481  0.50677929     0.02400
N408        N  0.21520356  0.06088294  0.51857754    -0.24500
N409        N  0.27966454  0.48116561  0.55772019    -0.25000
N410        N  0.21228769  0.06210301  0.98952612     0.02000
H411        H  0.19005440  0.08102108  0.55399737     0.07900
H412        H  0.18541928  0.05306486  0.92105603     0.07900
N413        N  0.21522153  0.44012583  0.97749376    -0.25000
N414        N  0.27942540  0.02253776  0.93899523    -0.24700
N415        N  0.21530347  0.01003005  0.56061160     0.02400
C416        C  0.31660606  0.41036413  0.99114390     0.43800
C417        C  0.30391276  0.07628547  0.52752183    -0.05900
N418        N  0.21436453  0.01950518  0.93880249    -0.24700
H419        H  0.30589594  0.05852649  0.92175157     0.07900
N420        N  0.30204405  0.42111215  0.51665617    -0.45900
H421        H  0.30986256  0.07871138  0.55073482     0.07900
C422        C  0.17508339  0.08851116  0.00440654     0.43600
C423        C  0.30269863  0.47003027  0.57310138    -0.05400
Co424      Co  0.24792736  0.03593894  0.53965409     0.73800
N425        N  0.29951070  0.08226010  0.97929182    -0.45600
C426        C  0.17815025  0.41088871  0.99262137     0.43900
N427        N  0.19360586  0.01955289  0.57830131    -0.45600
Co428      Co  0.24585838  0.04277109  0.96371364     0.73900
C429        C  0.19141400  0.02989251  0.92274404    -0.05900
C430        C  0.30219121  0.42428952  0.96547203    -0.05500
N431        N  0.21439619  0.48002517  0.55775362    -0.25000
N432        N  0.30101833  0.48197083  0.91700049    -0.45800
H433        H  0.18674841  0.42253793  0.94323386     0.07900
C434        C  0.19366516  0.07782350  0.53041192    -0.05900
Cl435      Cl  0.24769539  0.00094274  0.99841701    -0.48900
C436        C  0.31525748  0.09164671  0.00319179     0.43600
H437        H  0.18688611  0.44511755  0.57597121     0.07900
N438        N  0.19033767  0.07942343  0.98004659    -0.45600
C439        C  0.36648465  0.34706151  0.96580506     0.24600
C440        C  0.38373340  0.34162033  0.99141470    -0.23500
C441        C  0.36730434  0.34857532  0.51792711     0.19500
C442        C  0.34603693  0.37140151  0.51818860     0.24600
C443        C  0.33971866  0.38678811  0.99120572    -0.23400
C444        C  0.34479908  0.36934524  0.96569165     0.19500
F445        F  0.32802157  0.37278855  0.94078679    -0.13400
F446        F  0.36953448  0.33011153  0.94101332    -0.15700
F447        F  0.32969708  0.37572888  0.54331667    -0.15700
F448        F  0.37066870  0.33178670  0.54280992    -0.13400
C449        C  0.38606979  0.13591087  0.52061273     0.24600
C450        C  0.38802113  0.15519609  0.99728114    -0.23500
C451        C  0.37650633  0.14130606  0.97158374     0.19500
C452        C  0.35346960  0.12028298  0.97371157     0.24600
C453        C  0.34132167  0.11234710  0.00157066    -0.23400
C454        C  0.36356650  0.11426349  0.52240333     0.19500
F455        F  0.36203304  0.09705414  0.54713713    -0.13400
F456        F  0.40531556  0.13920528  0.54377257    -0.15700
F457        F  0.34297421  0.10788030  0.94820140    -0.15700
F458        F  0.38705955  0.14806484  0.94412126    -0.13400
C459        C  0.13840745  0.38380568  0.02096647     0.24600
C460        C  0.15306283  0.38934709  0.99380419    -0.23500
C461        C  0.14414505  0.37332837  0.96838797     0.19500
C462        C  0.12178363  0.35167793  0.97033251     0.24600
C463        C  0.10785649  0.34531305  0.99777619    -0.23400
C464        C  0.11610792  0.36208753  0.02295954     0.19500
F465        F  0.10863070  0.35297596  0.55140925    -0.13400
F466        F  0.14989613  0.39578819  0.54695653    -0.15700
F467        F  0.11441147  0.33647594  0.94525760    -0.15700
F468        F  0.15766956  0.37759115  0.94169681    -0.13400
C469        C  0.11522463  0.14109127  0.53041032     0.24600
C470        C  0.10780010  0.15734068  0.00417576    -0.23500
C471        C  0.12440549  0.15088738  0.97833940     0.19500
C472        C  0.14568970  0.12814607  0.97830964     0.24600
C473        C  0.15102680  0.11126767  0.00415021    -0.23400
C474        C  0.13712909  0.11896524  0.53025959     0.19500
F475        F  0.13998095  0.10157430  0.55474778    -0.13400
F476        F  0.09800868  0.14417787  0.55509324    -0.15700
F477        F  0.16157809  0.12327043  0.95300736    -0.15700
F478        F  0.12070847  0.16706630  0.95310944    -0.13400
C479        C  0.36993665  0.03577766  0.84923396     0.24600
C480        C  0.38336108  0.50524048  0.83943340    -0.23500
C481        C  0.37896785  0.48026178  0.85776291     0.19500
C482        C  0.35718758  0.48076539  0.88017452     0.24600
C483        C  0.33934470  0.50619774  0.88453093    -0.23400
C484        C  0.34785942  0.03595608  0.87117116     0.19500
F485        F  0.33070915  0.06067601  0.87404231    -0.13400
F486        F  0.37297060  0.06035217  0.83200869    -0.15700
F487        F  0.35384181  0.45649505  0.89784280    -0.15700
F488        F  0.39594180  0.45545874  0.85425609    -0.13400
C489        C  0.13011965  0.47798843  0.84255755     0.24600
C490        C  0.10865509  0.50070133  0.84026437    -0.23500
C491        C  0.10914740  0.52421933  0.86086193     0.19500
C492        C  0.14333793  0.02807084  0.87177748     0.24600
C493        C  0.15390181  0.00220387  0.88602747    -0.23400
C494        C  0.14153283  0.97461583  0.87772560     0.19500
F495        F  0.15037569  0.94912951  0.89131302    -0.13400
F496        F  0.13095662  0.45546213  0.82244810    -0.15700
F497        F  0.15439495  0.05529989  0.87861745    -0.15700
F498        F  0.08816317  0.54600733  0.85965677    -0.13400
C499        C  0.14824207  0.02071626  0.62699372     0.24600
C500        C  0.15324864  0.99552885  0.60906598    -0.23500
C501        C  0.13435189  0.97066606  0.61251320     0.19500
C502        C  0.11176118  0.97060010  0.63408999     0.24600
C503        C  0.10743497  0.99542966  0.65267375    -0.23400
C504        C  0.12556778  0.02070937  0.64843846     0.19500
F505        F  0.12206009  0.04529892  0.66563815    -0.13400
F506        F  0.16583608  0.04521959  0.62448312    -0.15700
F507        F  0.09084815  0.44789175  0.63557285    -0.15700
F508        F  0.13383877  0.44708924  0.59325554    -0.13400
C509        C  0.37053494  0.47316127  0.64782977     0.24600
C510        C  0.38512987  0.00138169  0.65484073    -0.23500
C511        C  0.37883256  0.02601105  0.63656887     0.19500
C512        C  0.35757714  0.02383682  0.61387206     0.24600
C513        C  0.34224613  0.49645522  0.60788590    -0.23400
C514        C  0.34849153  0.47161300  0.62586180     0.19500
F515        F  0.33241006  0.44612947  0.62335123    -0.13400
F516        F  0.37508074  0.44891244  0.66524574    -0.15700
F517        F  0.35215152  0.04814801  0.59680118    -0.15700
F518        F  0.39318891  0.05231516  0.64032127    -0.13400
C519        C  0.02645662  0.11696156  0.85860803     0.24600
C520        C  0.50361844  0.11391267  0.83957569    -0.23500
C521        C  0.47788955  0.13105094  0.84538683     0.19500
C522        C  0.47802607  0.15260444  0.86782133     0.24600
C523        C  0.00135584  0.15699982  0.88522226    -0.23400
C524        C  0.02610451  0.13803772  0.88145013     0.19500
F525        F  0.04980541  0.13923911  0.90028262    -0.13400
F526        F  0.05054651  0.09875699  0.85622714    -0.15700
F527        F  0.45288850  0.16902275  0.87213223    -0.15700
F528        F  0.45262128  0.12751251  0.82896418    -0.13400
C529        C  0.47341939  0.38296073  0.86045789     0.24600
C530        C  0.49749181  0.38809612  0.84087184    -0.23500
C531        C  0.02193805  0.37726683  0.84920241     0.19500
C532        C  0.02397999  0.35418743  0.87001637     0.24600
C533        C  0.50101754  0.34295195  0.88463659    -0.23400
C534        C  0.47513346  0.36054710  0.88199322     0.19500
F535        F  0.45153219  0.35637616  0.90059562    -0.13400
F536        F  0.44833099  0.39989922  0.85928735    -0.15700
F537        F  0.05154143  0.34338332  0.87648875    -0.15700
F538        F  0.04770501  0.38776454  0.83705497    -0.13400
C539        C  0.46519655  0.38356811  0.63677520     0.24600
C540        C  0.99212919  0.38812983  0.65735591    -0.23500
C541        C  0.01531468  0.36699113  0.65612073     0.19500
C542        C  0.01586510  0.34551114  0.63357727     0.24600
C543        C  0.49181969  0.34820853  0.60527831    -0.23400
C544        C  0.46508349  0.36217062  0.61424284     0.19500
F545        F  0.43847457  0.35531412  0.60146661    -0.13400
F546        F  0.43867945  0.39617809  0.64422022    -0.15700
F547        F  0.03800067  0.32482935  0.63371784    -0.15700
F548        F  0.03695174  0.36642746  0.67733643    -0.13400
C549        C  0.02248689  0.12150044  0.63783435     0.24600
C550        C  0.99731794  0.11367989  0.65501790    -0.23500
C551        C  0.47225084  0.12158145  0.64122500     0.19500
C552        C  0.47057010  0.14411780  0.61985000     0.24600
C553        C  0.99354685  0.15936169  0.61179021    -0.23400
C554        C  0.02061461  0.14407208  0.61655078     0.19500
F555        F  0.04543854  0.15075067  0.60042057    -0.13400
F556        F  0.04902224  0.10727540  0.64119686    -0.15700
F557        F  0.44326103  0.15071228  0.60852500    -0.15700
F558        F  0.44654764  0.10767482  0.64945529    -0.13400
C559        C  0.00016012  0.58785302  0.17580853     0.43500
N560        N  0.48775175  0.56364227  0.21514523     0.02400
C561        C  0.07345238  0.97133663  0.30250659    -0.05500
H562        H  0.07443698  0.94532938  0.18818622     0.07900
C563        C  0.46461194  0.92240880  0.19527630    -0.05800
Co564      Co  0.03903386  0.53499658  0.24574868     0.74200
N565        N  0.05570247  0.98037930  0.21501495    -0.25000
Co566      Co  0.03158764  0.95900205  0.24822852     0.74100
C567        C  0.99158533  0.90999594  0.18002694     0.43600
N568        N  0.43345830  0.99089972  0.21585846     0.02000
N569        N  0.00564988  0.93745290  0.21643479     0.02100
N570        N  0.07792161  0.52072950  0.30013030    -0.45900
H571        H  0.05028922  0.57815587  0.18443138     0.07900
N572        N  0.05930303  0.50810068  0.21392946     0.02400
N573        N  0.00640029  0.93842934  0.28119111     0.02100
C574        C  0.49215523  0.91270225  0.31864164     0.43700
N575        N  0.43700639  0.52075691  0.21550979    -0.24500
C576        C  0.02933023  0.57816023  0.29927632    -0.05400
N577        N  0.47771959  0.58205025  0.19457305    -0.45600
N578        N  0.01661539  0.92088574  0.30246493    -0.45800
C579        C  0.50264077  0.59163087  0.31653398     0.43500
N580        N  0.06026380  0.51025234  0.27889694     0.02400
N581        N  0.43761799  0.52151961  0.28039712    -0.24500
N582        N  0.01646897  0.55879801  0.21266316    -0.25000
N583        N  0.43391831  0.99228523  0.28078326     0.02000
H584        H  0.42088726  0.55692709  0.30767394     0.07900
H585        H  0.44222557  0.92284017  0.30915937     0.07900
N586        N  0.05677694  0.98170789  0.27997684    -0.25000
N587        N  0.47593139  0.93981334  0.21675021    -0.24700
N588        N  0.48807625  0.56432063  0.27998298     0.02400
C589        C  0.08610159  0.49225615  0.17761592     0.43800
C590        C  0.42079825  0.53144701  0.19279722    -0.05900
N591        N  0.47660140  0.94167054  0.28154429    -0.24700
H592        H  0.44101960  0.91916535  0.19106226     0.07900
N593        N  0.07689919  0.51701862  0.19196902    -0.45900
H594        H  0.41839759  0.55469308  0.18713356     0.07900
C595        C  0.40680264  0.00787900  0.31683604     0.43600
C596        C  0.02688328  0.57491944  0.18970828    -0.05400
Co597      Co  0.46215899  0.54301898  0.24770728     0.73800
N598        N  0.41610584  0.98086165  0.19419155    -0.45600
C599        C  0.08654682  0.99787368  0.31631297     0.43900
N600        N  0.47828681  0.58197781  0.30150321    -0.45600
Co601      Co  0.45435965  0.96571532  0.24872974     0.73900
C602        C  0.46572173  0.92564569  0.30428154    -0.05900
C603        C  0.07153579  0.96880735  0.19246571    -0.05500
N604        N  0.01777014  0.56113532  0.27766206    -0.25000
N605        N  0.01573010  0.91977265  0.19515261    -0.45800
H606        H  0.07646908  0.94807435  0.30774614     0.07900
C607        C  0.42223184  0.53341448  0.30294317    -0.05900
Cl608      Cl  0.99714126  0.49969401  0.24787156    -0.48900
C609        C  0.40779956  0.50514930  0.17859956     0.43600
H610        H  0.05297782  0.58097685  0.30338772     0.07900
N611        N  0.41608495  0.98317030  0.30247793    -0.45600
C612        C  0.08623971  0.68302179  0.50510922     0.43500
N613        N  0.05941560  0.71929371  0.48928028     0.02400
C614        C  0.46744548  0.80375020  0.07540331    -0.05500
H615        H  0.44527375  0.69092433  0.07915389     0.07900
C616        C  0.42025799  0.69442022  0.47057745    -0.05800
Co617      Co  0.03385978  0.75164522  0.03904443     0.74200
N618        N  0.47924518  0.71794203  0.05857830    -0.25000
Co619      Co  0.45669113  0.74986924  0.03377122     0.74100
C620        C  0.40779526  0.68062876  0.49741287     0.43600
N621        N  0.48672060  0.71731418  0.43712681     0.02000
N622        N  0.43550803  0.71721658  0.00841537     0.02100
N623        N  0.01862738  0.80625811  0.07721197    -0.45900
H624        H  0.07543946  0.69189860  0.05252586     0.07900
N625        N  0.00821804  0.71963822  0.06113180     0.02400
N626        N  0.43541622  0.78236245  0.00846900     0.02100
C627        C  0.40732879  0.82074251  0.49315425     0.43700
N628        N  0.01649569  0.71660985  0.43866564    -0.24500
C629        C  0.07612607  0.80541053  0.02599396    -0.05400
N630        N  0.07667812  0.69713037  0.48036473    -0.45600
N631        N  0.41891774  0.80459000  0.01872709    -0.45800
C632        C  0.08556516  0.82212546  0.49810227     0.43500
N633        N  0.00861228  0.78469998  0.05973857     0.02400
N634        N  0.01588140  0.78110964  0.43591713    -0.24500
N635        N  0.05774592  0.71858445  0.01737003    -0.25000
N636        N  0.48500720  0.78219324  0.43477893     0.02000
H637        H  0.05008145  0.80844244  0.41684777     0.07900
H638        H  0.41727157  0.81055656  0.44380441     0.07900
N639        N  0.47890928  0.78232580  0.05822621    -0.25000
N640        N  0.43641968  0.71750830  0.48055422    -0.24700
N641        N  0.05897704  0.78420978  0.48595285     0.02400
C642        C  0.99419757  0.68318059  0.08875336     0.43800
C643        C  0.02806768  0.69462227  0.42220511    -0.05900
N644        N  0.43516928  0.78256858  0.47842955    -0.24700
H645        H  0.41693807  0.68890025  0.44740505     0.07900
N646        N  0.01836380  0.69819555  0.07865959    -0.45900
H647        H  0.05175337  0.69096815  0.41891932     0.07900
C648        C  0.49848075  0.81864562  0.40690953     0.43600
C649        C  0.07312170  0.69593336  0.02895034    -0.05400
Co650      Co  0.03826576  0.75025899  0.46206081     0.73800
N651        N  0.47726695  0.69548449  0.41971931    -0.45600
C652        C  0.49337164  0.81839700  0.08875503     0.43900
N653        N  0.07625477  0.80540946  0.47489394    -0.45600
Co654      Co  0.46027372  0.74984199  0.45716012     0.73900
C655        C  0.41969652  0.80550501  0.46715942    -0.05900
C656        C  0.46866724  0.69614934  0.07594562    -0.05500
N657        N  0.05885699  0.78323721  0.01583120    -0.25000
N658        N  0.41829758  0.69555598  0.01861240    -0.45800
H659        H  0.44378081  0.80735046  0.07903634     0.07900
C660        C  0.02673396  0.80321992  0.41911029    -0.05900
Cl661      Cl  0.99662844  0.75159201  0.49732712    -0.49500
C662        C  0.00218288  0.67972004  0.40881678     0.43600
H663        H  0.07969872  0.81052105  0.04923634     0.07900
N664        N  0.47455278  0.80309534  0.41681297    -0.45600
C665        C  0.31849908  0.99933044  0.08572240     0.43500
N666        N  0.27971840  0.51031645  0.05967395     0.02400
C667        C  0.19272017  0.92519657  0.46625125    -0.05500
H668        H  0.30937610  0.92407530  0.44315705     0.07900
C669        C  0.30186087  0.53475522  0.42367542    -0.05800
Co670      Co  0.24939329  0.95919653  0.03332501     0.74200
N671        N  0.28072948  0.94200170  0.47740740    -0.25000
Co672      Co  0.24748017  0.96630693  0.45575614     0.74100
C673        C  0.31480758  0.00801264  0.40670154     0.43600
N674        N  0.27766396  0.56467973  0.48975258     0.02000
N675        N  0.27938225  0.99252791  0.43473827     0.02100
N676        N  0.19713605  0.91840495  0.01711034    -0.45900
H677        H  0.31085569  0.94944702  0.07581165     0.07900
N678        N  0.28321545  0.93998751  0.00789767     0.02400
N679        N  0.21410922  0.99157577  0.43548971     0.02100
C680        C  0.17829903  0.50453109  0.40747697     0.43700
N681        N  0.27873870  0.56042047  0.01671216    -0.24500
C682        C  0.19315484  0.96776413  0.07414607    -0.05400
N683        N  0.30042747  0.52086116  0.07785391    -0.45600
N684        N  0.19255035  0.98147002  0.41799445    -0.45800
C685        C  0.17801256  0.49294833  0.08676130     0.43500
N686        N  0.21797242  0.93692101  0.00738738     0.02400
N687        N  0.21347762  0.55915352  0.01731681    -0.24500
N688        N  0.28104937  0.98245603  0.05795204    -0.25000
N689        N  0.21224228  0.56271562  0.48984594     0.02000
H690        H  0.18629171  0.57641300  0.05242252     0.07900
H691        H  0.18579996  0.55424871  0.41850973     0.07900
N692        N  0.21537401  0.94108306  0.47756054    -0.25000
N693        N  0.27916880  0.52267212  0.43897445    -0.24700
N694        N  0.21448599  0.50876655  0.05995240     0.02400
C695        C  0.31851688  0.91370961  0.49268640     0.43800
C696        C  0.30178512  0.57616548  0.02751935    -0.05900
N697        N  0.21384297  0.52070060  0.43826562    -0.24700
H698        H  0.30642040  0.55826661  0.42219360     0.07900
N699        N  0.30537657  0.92336425  0.01811260    -0.45900
H700        H  0.30753929  0.57783470  0.05074741     0.07900
C701        C  0.17506827  0.58911101  0.50488936     0.43600
C702        C  0.30469874  0.97253635  0.07333709    -0.05400
Co703      Co  0.24658976  0.53515159  0.03892815     0.73800
N704        N  0.29908124  0.58252665  0.48000518    -0.45600
C705        C  0.17797880  0.91208408  0.49211680     0.43900
N706        N  0.19251340  0.51773536  0.07762912    -0.45600
Co707      Co  0.24562113  0.54325738  0.46376329     0.73900
C708        C  0.19132625  0.53103746  0.42142324    -0.05900
C709        C  0.30399183  0.92658417  0.46649817    -0.05500
N710        N  0.21558873  0.97961188  0.05811468    -0.25000
N711        N  0.30074901  0.98332324  0.41652302    -0.45800
H712        H  0.18741114  0.92333309  0.44288392     0.07900
C713        C  0.19065748  0.57447694  0.02888675    -0.05900
Cl714      Cl  0.24680632  0.50119260  0.49826867    -0.48900
C715        C  0.31434353  0.59184088  0.50419269     0.43600
H716        H  0.18895444  0.94428079  0.07685343     0.07900
N717        N  0.19029827  0.58011401  0.48047505    -0.45600
C718        C  0.38564690  0.86705053  0.47068577     0.24600
C719        C  0.38641267  0.84613126  0.49392840    -0.23500
C720        C  0.37047135  0.85074282  0.02056438     0.19500
C721        C  0.34924680  0.87361914  0.02047635     0.24600
C722        C  0.34296796  0.89162351  0.49372421    -0.23400
C723        C  0.36409633  0.88962372  0.47058906     0.19500
F724        F  0.36428182  0.90975698  0.44810710    -0.13400
F725        F  0.40605807  0.86606917  0.44832323    -0.15700
F726        F  0.33085514  0.87645054  0.04438290    -0.15700
F727        F  0.37164272  0.83225584  0.04442224    -0.13400
C728        C  0.37189545  0.64910848  0.02369880     0.24600
C729        C  0.38520536  0.65657088  0.49968015    -0.23500
C730        C  0.37974081  0.63719561  0.47567427     0.19500
C731        C  0.35696983  0.61591712  0.47740959     0.24600
C732        C  0.33940285  0.61329910  0.50326653    -0.23400
C733        C  0.34979851  0.62720647  0.02549449     0.19500
F734        F  0.33625404  0.62278344  0.05213351    -0.13400
F735        F  0.37877837  0.66448130  0.04879676    -0.15700
F736        F  0.35233646  0.59762295  0.45379458    -0.15700
F737        F  0.39659122  0.63840527  0.45057745    -0.13400
C738        C  0.13548302  0.88743525  0.51855546     0.24600
C739        C  0.15288231  0.89061966  0.49268349    -0.23500
C740        C  0.14663538  0.87243406  0.46795414     0.19500
C741        C  0.12429148  0.85072772  0.46953717     0.24600
C742        C  0.10761358  0.84671799  0.49586377    -0.23400
C743        C  0.11295714  0.86590377  0.52008286     0.19500
F744        F  0.10144106  0.86005640  0.04659946    -0.13400
F745        F  0.14535737  0.90097678  0.04351437    -0.15700
F746        F  0.11977218  0.83302509  0.44545790    -0.15700
F747        F  0.16295103  0.87454077  0.44256284    -0.13400
C748        C  0.11482654  0.64042706  0.02976537     0.24600
C749        C  0.10794788  0.65809968  0.50506359    -0.23500
C750        C  0.12604857  0.65313888  0.47990827     0.19500
C751        C  0.14729977  0.63039643  0.47974747     0.24600
C752        C  0.15110389  0.61197686  0.50476674    -0.23400
C753        C  0.13644471  0.61812223  0.02975061     0.19500
F754        F  0.14389308  0.60590946  0.05628382    -0.13400
F755        F  0.10283442  0.64831593  0.05631769    -0.15700
F756        F  0.16476526  0.62710472  0.45522990    -0.15700
F757        F  0.12393592  0.67090050  0.45557714    -0.13400
C758        C  0.37042889  0.53512621  0.34930292     0.24600
C759        C  0.38370304  0.00825900  0.34022791    -0.23500
C760        C  0.38071529  0.98404620  0.35976783     0.19500
C761        C  0.35835691  0.98405965  0.38153000     0.24600
C762        C  0.33861263  0.00825224  0.38403652    -0.23400
C763        C  0.34873860  0.53557922  0.37169443     0.19500
F764        F  0.33291493  0.56099964  0.37571157    -0.13400
F765        F  0.37413447  0.56010804  0.33281825    -0.15700
F766        F  0.35633331  0.96061958  0.40045928    -0.15700
F767        F  0.39972661  0.96054890  0.35811120    -0.13400
C768        C  0.11482298  0.97534221  0.35942541     0.24600
C769        C  0.10859940  0.99990994  0.34099792    -0.23500
C770        C  0.12410073  0.02674501  0.34611603     0.19500
C771        C  0.13402916  0.52596707  0.38018537     0.24600
C772        C  0.15441256  0.50252768  0.38464272    -0.23400
C773        C  0.15192387  0.47684446  0.36680461     0.19500
F774        F  0.17138528  0.45386210  0.36988951    -0.13400
F775        F  0.09982693  0.94930660  0.35621705    -0.15700
F776        F  0.13480219  0.55064199  0.39754769    -0.15700
F777        F  0.11907464  0.05103531  0.32890025    -0.13400
C778        C  0.13668736  0.51807383  0.11494815     0.24600
C779        C  0.15365348  0.49236012  0.10913693    -0.23500
C780        C  0.14766144  0.46638883  0.12559968     0.19500
C781        C  0.12551803  0.46619979  0.14748499     0.24600
C782        C  0.10868072  0.49194741  0.15348737    -0.23400
C783        C  0.11443225  0.51786680  0.13687843     0.19500
F784        F  0.09844191  0.54308339  0.14173268    -0.13400
F785        F  0.14146671  0.54346280  0.09930588    -0.15700
F786        F  0.09122803  0.94633773  0.13525366    -0.15700
F787        F  0.13530390  0.94543757  0.09394538    -0.13400
C788        C  0.38363974  0.97883228  0.13558459     0.24600
C789        C  0.38530671  0.50378488  0.15449707    -0.23500
C790        C  0.36438910  0.52679646  0.15078652     0.19500
C791        C  0.34205654  0.52462115  0.12912212     0.24600
C792        C  0.34296870  0.00150630  0.10769758    -0.23400
C793        C  0.36261969  0.97756010  0.11260580     0.19500
F794        F  0.36188712  0.95301002  0.09505780    -0.13400
F795        F  0.40206937  0.95524094  0.13997317    -0.15700
F796        F  0.32164883  0.54689463  0.12708912    -0.15700
F797        F  0.36459492  0.55090290  0.16897533    -0.13400
C798        C  0.02861321  0.61888730  0.35614571     0.24600
C799        C  0.50197101  0.61326308  0.34160461    -0.23500
C800        C  0.47615799  0.63038469  0.34716967     0.19500
C801        C  0.47593025  0.65178289  0.36982560     0.24600
C802        C  0.00210693  0.65613420  0.38556801    -0.23400
C803        C  0.02823822  0.63984324  0.37911999     0.19500
F804        F  0.05359862  0.64361721  0.39525574    -0.13400
F805        F  0.05435261  0.60369264  0.35127508    -0.15700
F806        F  0.45074241  0.66819346  0.37387096    -0.15700
F807        F  0.45121692  0.62706223  0.33022096    -0.13400
C808        C  0.46802112  0.88098280  0.35854242     0.24600
C809        C  0.49366476  0.88986125  0.34252753    -0.23500
C810        C  0.02230417  0.87843353  0.35193046     0.19500
C811        C  0.02443851  0.85564657  0.37288955     0.24600
C812        C  0.49703839  0.84353699  0.38523814    -0.23400
C813        C  0.46968870  0.85800910  0.37951305     0.19500
F814        F  0.44439795  0.85006328  0.39429267    -0.13400
F815        F  0.44121741  0.89445027  0.35425678    -0.15700
F816        F  0.05215479  0.84697407  0.38151929    -0.15700
F817        F  0.04805544  0.89079350  0.34164909    -0.13400
C818        C  0.46685517  0.88162869  0.13827338     0.24600
C819        C  0.99285361  0.88840237  0.15518078    -0.23500
C820        C  0.01811645  0.87001383  0.15147634     0.19500
C821        C  0.01895216  0.84876336  0.12875657     0.24600
C822        C  0.49320841  0.84223956  0.11164495    -0.23400
C823        C  0.46766176  0.86012883  0.11582397     0.19500
F824        F  0.44347079  0.85750506  0.09777631    -0.13400
F825        F  0.44187457  0.89854676  0.14096801    -0.15700
F826        F  0.04329076  0.83081030  0.12656818    -0.15700
F827        F  0.04174289  0.87186882  0.17039914    -0.13400
C828        C  0.02236001  0.61657941  0.13279148     0.24600
C829        C  0.99835191  0.61120660  0.15241215    -0.23500
C830        C  0.47469397  0.63314741  0.15389533     0.19500
C831        C  0.47291127  0.65497769  0.13199764     0.24600
C832        C  0.99535869  0.65808479  0.11023453    -0.23400
C833        C  0.02094001  0.63987396  0.11207925     0.19500
F834        F  0.04451160  0.64430969  0.09350857    -0.13400
F835        F  0.04705498  0.59902422  0.13313964    -0.15700
F836        F  0.44782350  0.67190700  0.13059550    -0.15700
F837        F  0.45100706  0.62953901  0.17250968    -0.13400
C838        C  0.00085174  0.59204799  0.67637970     0.43500
N839        N  0.48624123  0.56275052  0.71418692     0.02400
C840        C  0.07439433  0.97088028  0.80155046    -0.05500
H841        H  0.07475809  0.94565342  0.68752033     0.07900
C842        C  0.46316686  0.92583709  0.69447795    -0.05800
Co843      Co  0.03820834  0.53827364  0.74600002     0.74200
N844        N  0.05581327  0.98049350  0.71439817    -0.25000
Co845      Co  0.03188781  0.95912895  0.74793378     0.74100
C846        C  0.98944194  0.90941891  0.68143653     0.43600
N847        N  0.43291777  0.99100539  0.71781473     0.02000
N848        N  0.00510446  0.93752596  0.71675534     0.02100
N849        N  0.07668886  0.52384944  0.80071790    -0.45900
H850        H  0.05074540  0.58170490  0.68557394     0.07900
N851        N  0.05869647  0.51145484  0.71418663     0.02400
N852        N  0.00716137  0.93889994  0.78154275     0.02100
C853        C  0.49332701  0.91219353  0.81917278     0.43700
N854        N  0.43660401  0.51836119  0.71475510    -0.24500
C855        C  0.02729255  0.58057348  0.79996141    -0.05400
N856        N  0.47597879  0.58129555  0.69372575    -0.45600
N857        N  0.01795395  0.92125376  0.80245211    -0.45800
C858        C  0.50092680  0.58930278  0.81647501     0.43500
N859        N  0.05912151  0.51351952  0.77930023     0.02400
N860        N  0.43676908  0.51926358  0.77953206    -0.24500
N861        N  0.01625428  0.56235456  0.71289108    -0.25000
N862        N  0.43489364  0.99290358  0.78269848     0.02000
H863        H  0.41731761  0.55424771  0.80566492     0.07900
H864        H  0.44338326  0.92395042  0.81150745     0.07900
N865        N  0.05768544  0.98161740  0.77926135    -0.25000
N866        N  0.47515430  0.94076209  0.71737463    -0.24700
N867        N  0.48669662  0.56276003  0.77927029     0.02400
C868        C  0.08486681  0.49597627  0.67729362     0.43800
C869        C  0.42069829  0.52849111  0.69158459    -0.05900
N870        N  0.47719882  0.94150488  0.78245972    -0.24700
H871        H  0.43945441  0.92407583  0.69007675     0.07900
N872        N  0.07587247  0.52058220  0.69202171    -0.45900
H873        H  0.41786118  0.55167335  0.68594587     0.07900
C874        C  0.40937845  0.00923375  0.81968589     0.43600
C875        C  0.02723366  0.57886260  0.69056179    -0.05400
Co876      Co  0.46110369  0.54128186  0.74689663     0.73800
N877        N  0.41538988  0.98037508  0.69664803    -0.45600
C878        C  0.08785179  0.99710811  0.81558689     0.43900
N879        N  0.47667057  0.57971967  0.80124112    -0.45600
Co880      Co  0.45442996  0.96605131  0.75026651     0.73900
C881        C  0.46674140  0.92574890  0.80557760    -0.05900
C882        C  0.07178835  0.96911092  0.69184923    -0.05500
N883        N  0.01625297  0.56406076  0.77769854    -0.25000
N884        N  0.01427132  0.91951190  0.69533476    -0.45800
H885        H  0.07685473  0.94752088  0.80661134     0.07900
C886        C  0.42000561  0.53074907  0.80129118    -0.05900
Cl887      Cl  0.99644540  0.50295990  0.74717644    -0.48900
C888        C  0.40826667  0.50179059  0.67752682     0.43600
H889        H  0.05078793  0.58329014  0.80499326     0.07900
N890        N  0.41793491  0.98424216  0.80527244    -0.45600
C891        C  0.08525784  0.67996214  0.00325638     0.43500
N892        N  0.05980892  0.71752235  0.98813577     0.02400
C893        C  0.46338526  0.80886225  0.57265892    -0.05500
H894        H  0.44408241  0.69311550  0.57942351     0.07900
C895        C  0.42071207  0.69488721  0.96839069    -0.05800
Co896      Co  0.03209789  0.75428601  0.53879956     0.74200
N897        N  0.47771983  0.72133305  0.55999794    -0.25000
Co898      Co  0.45455333  0.75210715  0.53417522     0.74100
C899        C  0.40818805  0.68025316  0.99474598     0.43600
N900        N  0.48704626  0.71700878  0.93537645     0.02000
N901        N  0.43452676  0.71829681  0.50982971     0.02100
N902        N  0.01519548  0.80919508  0.57566760    -0.45900
H903        H  0.07627211  0.69506637  0.55413464     0.07900
N904        N  0.00674917  0.72277747  0.56136657     0.02400
N905        N  0.43282079  0.78314937  0.50768390     0.02100
C906        C  0.40987572  0.82039627  0.99481810     0.43700
N907        N  0.01638086  0.71709860  0.93824030    -0.24500
C908        C  0.07261851  0.80888715  0.52495305    -0.05400
N909        N  0.07619446  0.69486419  0.97874412    -0.45600
N910        N  0.41622607  0.80547243  0.51737960    -0.45800
C911        C  0.08946766  0.81865840  0.99930477     0.43500
N912        N  0.00588644  0.78746771  0.55807868     0.02400
N913        N  0.01726101  0.78189484  0.93672434    -0.24500
N914        N  0.05718362  0.72088253  0.51850681    -0.25000
N915        N  0.48753818  0.78223365  0.93562855     0.02000
H916        H  0.05170899  0.80886528  0.91688078     0.07900
H917        H  0.41933313  0.81076475  0.94522532     0.07900
N918        N  0.47537252  0.78607703  0.55759495    -0.25000
N919        N  0.43723816  0.71736596  0.97912538    -0.24700
N920        N  0.06091746  0.78242220  0.98655414     0.02400
C921        C  0.99308563  0.68732173  0.59023140     0.43800
C922        C  0.02696653  0.69431299  0.92218939    -0.05900
N923        N  0.43756342  0.78237146  0.97919894    -0.24700
H924        H  0.41750358  0.69018315  0.94503028     0.07900
N925        N  0.01705757  0.70236733  0.57984032    -0.45900
H926        H  0.05039721  0.68923649  0.91895609     0.07900
C927        C  0.50141945  0.82002640  0.90962291     0.43600
C928        C  0.07339779  0.69886343  0.53055592    -0.05400
Co929      Co  0.03918058  0.74971205  0.96197244     0.73800
N930        N  0.47691849  0.69536827  0.91804824    -0.45600
C931        C  0.48903527  0.82525662  0.58460712     0.43900
N932        N  0.07907936  0.80303991  0.97581746    -0.45600
Co933      Co  0.46182311  0.74973826  0.95675953     0.73900
C934        C  0.42205449  0.80551720  0.96850002    -0.05900
C935        C  0.46737607  0.69910099  0.57695948    -0.05500
N936        N  0.05656563  0.78570497  0.51514746    -0.25000
N937        N  0.41749681  0.69686993  0.52074577    -0.45800
H938        H  0.43968252  0.81275168  0.57514118     0.07900
C939        C  0.02830252  0.80389787  0.91981854    -0.05900
Cl940      Cl  0.99793385  0.75100892  0.99791089    -0.49500
C941        C  0.00038785  0.68017612  0.90948819     0.43600
H942        H  0.07540410  0.81485032  0.54808986     0.07900
N943        N  0.47739913  0.80439517  0.91913906    -0.45600
C944        C  0.31782010  0.99592325  0.58648057     0.43500
N945        N  0.27945047  0.51033895  0.56066328     0.02400
C946        C  0.19667051  0.92184956  0.96686818    -0.05500
H947        H  0.31247830  0.92464365  0.94471816     0.07900
C948        C  0.30083079  0.53215175  0.92082657    -0.05800
Co949      Co  0.24783762  0.95933567  0.53252158     0.74200
N950        N  0.28352302  0.94257216  0.97866017    -0.25000
Co951      Co  0.24964069  0.96594933  0.95657561     0.74100
C952        C  0.31781453  0.00983749  0.91038725     0.43600
N953        N  0.27841519  0.56309539  0.98749658     0.02000
N954        N  0.28107543  0.99339005  0.93629020     0.02100
N955        N  0.19318510  0.92126369  0.51644377    -0.45900
H956        H  0.30840241  0.94655921  0.57542987     0.07900
N957        N  0.28055248  0.93924896  0.50662973     0.02400
N958        N  0.21567914  0.99036237  0.93574423     0.02100
C959        C  0.17659653  0.50381924  0.90806494     0.43700
N960        N  0.27787732  0.56172012  0.51894499    -0.24500
C961        C  0.19288821  0.96946120  0.57378630    -0.05400
N962        N  0.30150941  0.52012149  0.57775519    -0.45600
N963        N  0.19456723  0.97996849  0.91781392    -0.45800
C964        C  0.17673910  0.49433892  0.58677706     0.43500
N965        N  0.21515342  0.93851983  0.50677935     0.02400
N966        N  0.21270365  0.56002977  0.51907091    -0.24500
N967        N  0.28052391  0.98104975  0.55732583    -0.25000
N968        N  0.21296447  0.56188671  0.98814061     0.02000
H969        H  0.18564075  0.57857391  0.55409472     0.07900
H970        H  0.18493064  0.55338546  0.91854037     0.07900
N971        N  0.21821463  0.93931981  0.97812763    -0.25000
N972        N  0.27855089  0.52063863  0.93705858    -0.24700
N973        N  0.21400887  0.50918672  0.56065459     0.02400
C974        C  0.32169464  0.91470189  0.99436134     0.43800
C975        C  0.30024797  0.57812818  0.53014601    -0.05900
N976        N  0.21328214  0.51957291  0.93752300    -0.24700
H977        H  0.30564146  0.55559875  0.91860163     0.07900
N978        N  0.30255752  0.92237266  0.51662837    -0.45900
H979        H  0.30576807  0.58006275  0.55351962     0.07900
C980        C  0.17526403  0.58741526  0.00320818     0.43600
C981        C  0.30320289  0.96991741  0.57332044    -0.05400
Co982      Co  0.24606921  0.53573835  0.54042356     0.73800
N983        N  0.30025607  0.58026356  0.97739472    -0.45600
C984        C  0.18268386  0.90802057  0.99286065     0.43900
N985        N  0.19201922  0.51863145  0.57790547    -0.45600
Co986      Co  0.24576962  0.54190601  0.96210545     0.73900
C987        C  0.19037503  0.53015574  0.92139639    -0.05900
C988        C  0.30708407  0.92734801  0.96801407    -0.05500
N989        N  0.21535394  0.98084928  0.55767229    -0.25000
N990        N  0.30365260  0.98483077  0.91925151    -0.45800
H991        H  0.19170947  0.91922583  0.94349363     0.07900
C992        C  0.19006666  0.57586600  0.53059951    -0.05900
Cl993      Cl  0.24698520  0.50022771  0.99720115    -0.48900
C994        C  0.31610935  0.58937456  0.00131250     0.43600
H995        H  0.18823588  0.94601578  0.57624261     0.07900
N996        N  0.19060201  0.57873791  0.97875941    -0.45600
C997        C  0.38783269  0.86644896  0.97196709     0.24600
C998        C  0.38936512  0.84630740  0.99588531    -0.23500
C999        C  0.36641710  0.84924480  0.51790587     0.19500
C1000       C  0.34490269  0.87170118  0.51779143     0.24600
C1001       C  0.34629223  0.89250655  0.99561927    -0.23400
C1002       C  0.36648955  0.88923621  0.97179729     0.19500
F1003       F  0.36597769  0.90829865  0.94841557    -0.13400
F1004       F  0.40727072  0.86448716  0.94882876    -0.15700
F1005       F  0.32519510  0.87306212  0.54077844    -0.15700
F1006       F  0.36677567  0.82980196  0.54101834    -0.13400
C1007       C  0.36816521  0.65329403  0.52589716     0.24600
C1008       C  0.38599423  0.65563694  0.99641521    -0.23500
C1009       C  0.37804167  0.63884581  0.97111394     0.19500
C1010       C  0.35583810  0.61690807  0.97292607     0.24600
C1011       C  0.34110976  0.61112699  0.00005076    -0.23400
C1012       C  0.34550046  0.63194398  0.52764381     0.19500
F1013       F  0.32871991  0.63059602  0.55279406    -0.13400
F1014       F  0.37264718  0.67139443  0.54968649    -0.15700
F1015       F  0.34886097  0.60127070  0.94800037    -0.15700
F1016       F  0.39166125  0.64334239  0.94451016    -0.13400
C1017       C  0.14081162  0.88283819  0.01977301     0.24600
C1018       C  0.15823832  0.88581834  0.99386563    -0.23500
C1019       C  0.15243626  0.86699831  0.96952766     0.19500
C1020       C  0.12986743  0.84548414  0.97121397     0.24600
C1021       C  0.11262392  0.84224584  0.99731149    -0.23400
C1022       C  0.11817333  0.86144151  0.02144087     0.19500
F1023       F  0.09630585  0.86423551  0.54527268    -0.13400
F1024       F  0.14010522  0.90535213  0.54244967    -0.15700
F1025       F  0.12555931  0.82729556  0.94745941    -0.15700
F1026       F  0.16929937  0.86846135  0.94443763    -0.13400
C1027       C  0.11106337  0.63918062  0.52982202     0.24600
C1028       C  0.10607885  0.65426256  0.00305392    -0.23500
C1029       C  0.11826461  0.64379184  0.97608486     0.19500
C1030       C  0.14005331  0.62146418  0.97607694     0.24600
C1031       C  0.15010398  0.60896274  0.00303409    -0.23400
C1032       C  0.13236621  0.61631219  0.52965137     0.19500
F1033       F  0.13412013  0.59815794  0.55369533    -0.13400
F1034       F  0.09315378  0.64228528  0.55403717    -0.15700
F1035       F  0.15160285  0.61255411  0.94957078    -0.15700
F1036       F  0.10959393  0.65545131  0.94958704    -0.13400
C1037       C  0.36506376  0.53037827  0.84349339     0.24600
C1038       C  0.38731590  0.01015390  0.84418596    -0.23500
C1039       C  0.38250317  0.98491767  0.86202356     0.19500
C1040       C  0.36038109  0.98510914  0.88404026     0.24600
C1041       C  0.34259251  0.01052192  0.88860954    -0.23400
C1042       C  0.34346073  0.53091049  0.86584713     0.19500
F1043       F  0.32573484  0.55529040  0.86812237    -0.13400
F1044       F  0.36691305  0.55414383  0.82501031    -0.15700
F1045       F  0.35639168  0.96035390  0.90087274    -0.15700
F1046       F  0.39920357  0.95998164  0.85819376    -0.13400
C1047       C  0.11983385  0.97281143  0.85530662     0.24600
C1048       C  0.10984927  0.99862127  0.84049695    -0.23500
C1049       C  0.12162973  0.02629032  0.84943241     0.19500
C1050       C  0.13086450  0.52508033  0.88333384     0.24600
C1051       C  0.15267623  0.50257284  0.88531555    -0.23400
C1052       C  0.15187120  0.47889508  0.86483511     0.19500
F1053       F  0.17279657  0.45702058  0.86562312    -0.13400
F1054       F  0.10889913  0.94557973  0.84829578    -0.15700
F1055       F  0.13003208  0.54753401  0.90351777    -0.15700
F1056       F  0.11255371  0.05192034  0.83627786    -0.13400
C1057       C  0.14854695  0.51990234  0.62737772     0.24600
C1058       C  0.15210287  0.49496478  0.60876404    -0.23500
C1059       C  0.13222055  0.47087057  0.61178874     0.19500
C1060       C  0.10993499  0.47130850  0.63368771     0.24600
C1061       C  0.10710315  0.49587218  0.65292770    -0.23400
C1062       C  0.12632441  0.52035100  0.64916138     0.19500
F1063       F  0.12440734  0.54448903  0.66723538    -0.13400
F1064       F  0.16720038  0.54366409  0.62527236    -0.15700
F1065       F  0.09385739  0.94631137  0.63627515    -0.15700
F1066       F  0.13720157  0.94644671  0.59474180    -0.13400
C1067       C  0.37057758  0.97417953  0.64889507     0.24600
C1068       C  0.38682136  0.49961268  0.65243311    -0.23500
C1069       C  0.38166588  0.52390157  0.63335134     0.19500
C1070       C  0.35950088  0.52236451  0.61142918     0.24600
C1071       C  0.34214771  0.99702121  0.60880444    -0.23400
C1072       C  0.34929606  0.97205059  0.62623381     0.19500
F1073       F  0.33493659  0.94574175  0.62240818    -0.13400
F1074       F  0.37623415  0.94958808  0.66548637    -0.15700
F1075       F  0.35505657  0.54626354  0.59351380    -0.15700
F1076       F  0.39815591  0.54913852  0.63553813    -0.13400
C1077       C  0.02377381  0.61590967  0.86015936     0.24600
C1078       C  0.50014296  0.61065290  0.84176301    -0.23500
C1079       C  0.47400538  0.62701752  0.84812111     0.19500
C1080       C  0.47406987  0.64894568  0.87029770     0.24600
C1081       C  0.99938274  0.65642989  0.88668344    -0.23400
C1082       C  0.02341020  0.63648688  0.88346392     0.19500
F1083       F  0.04644650  0.63643463  0.90314526    -0.13400
F1084       F  0.04724867  0.59690392  0.85812749    -0.15700
F1085       F  0.44859440  0.66470057  0.87508727    -0.15700
F1086       F  0.44846130  0.62245628  0.83239266    -0.13400
C1087       C  0.46932747  0.87676432  0.85579304     0.24600
C1088       C  0.49519394  0.89031775  0.84404269    -0.23500
C1089       C  0.02249479  0.87074939  0.84428622     0.19500
C1090       C  0.02445225  0.84827081  0.86563596     0.24600
C1091       C  0.49962946  0.84544272  0.88840039    -0.23400
C1092       C  0.47151695  0.85483305  0.87772160     0.19500
F1093       F  0.44580001  0.84245426  0.88805435    -0.13400
F1094       F  0.44167080  0.88384329  0.84565518    -0.15700
F1095       F  0.04933359  0.83098013  0.86609745    -0.15700
F1096       F  0.04583716  0.87452193  0.82528177    -0.13400
C1097       C  0.46237570  0.88693254  0.63624210     0.24600
C1098       C  0.98956393  0.88804863  0.65634745    -0.23500
C1099       C  0.01570973  0.87192529  0.64965525     0.19500
C1100       C  0.01612899  0.85161791  0.62615056     0.24600
C1101       C  0.48907806  0.85065563  0.60579174    -0.23400
C1102       C  0.46243238  0.86551923  0.61363135     0.19500
F1103       F  0.43622344  0.85954266  0.59961956    -0.13400
F1104       F  0.43614765  0.90063569  0.64279746    -0.15700
F1105       F  0.04177334  0.83629365  0.62089193    -0.15700
F1106       F  0.04088859  0.87522307  0.66625565    -0.13400
C1107       C  0.02392786  0.63452974  0.64822061     0.24600
C1108       C  0.99941407  0.61561307  0.65345913    -0.23500
C1109       C  0.47243351  0.63291399  0.65261454     0.19500
C1110       C  0.47093546  0.65561928  0.63143737     0.24600
C1111       C  0.99490763  0.66265339  0.61196726    -0.23400
C1112       C  0.02169447  0.65775294  0.62774670     0.19500
F1113       F  0.04571036  0.67591186  0.62403118    -0.13400
F1114       F  0.04981886  0.63151029  0.66367579    -0.15700
F1115       F  0.44554556  0.67208638  0.62989121    -0.15700
F1116       F  0.44823684  0.62818977  0.67029882    -0.13400
C1117       C  0.50071885  0.09103096  0.17801502     0.43500
N1118       N  0.98505080  0.06237407  0.21484974     0.02400
C1119       C  0.57299483  0.47192895  0.30337143    -0.05500
H1120       H  0.57370759  0.44679150  0.18716984     0.07900
C1121       C  0.96485279  0.42283809  0.19494476    -0.05800
Co1122     Co  0.53821915  0.03598421  0.24615352     0.74200
N1123       N  0.55726900  0.48180488  0.21493049    -0.25000
Co1124     Co  0.53275407  0.46008562  0.24784103     0.74100
C1125       C  0.49273686  0.41185915  0.17881862     0.43600
N1126       N  0.93353072  0.48920090  0.21733925     0.02000
N1127       N  0.50691944  0.43879632  0.21563251     0.02100
N1128       N  0.57760872  0.02130214  0.29974811    -0.45900
H1129       H  0.55059726  0.08025888  0.18733957     0.07900
N1130       N  0.55816532  0.00964273  0.21372921     0.02400
N1131       N  0.50720509  0.43916502  0.28041284     0.02100
C1132       C  0.99386659  0.40980931  0.31806991     0.43700
N1133       N  0.93468360  0.01919351  0.21691707    -0.24500
C1134       C  0.52849939  0.07833482  0.30002103    -0.05400
N1135       N  0.97475023  0.07963691  0.19327730    -0.45600
N1136       N  0.51725508  0.42035890  0.30067298    -0.45800
C1137       C  0.00052321  0.09045599  0.31667840     0.43500
N1138       N  0.55961259  0.01100385  0.27873628     0.02400
N1139       N  0.93648568  0.01966986  0.28154978    -0.24500
N1140       N  0.51600205  0.06044325  0.21382031    -0.25000
N1141       N  0.93529505  0.49162132  0.28238867     0.02000
H1142       H  0.91846758  0.05384682  0.30992742     0.07900
H1143       H  0.94387550  0.42018059  0.30996600     0.07900
N1144       N  0.55755115  0.48247064  0.28011374    -0.25000
N1145       N  0.97632932  0.43889137  0.21742326    -0.24700
N1146       N  0.98619104  0.06333251  0.27996697     0.02400
C1147       C  0.58345390  0.99491210  0.17585254     0.43800
C1148       C  0.91736128  0.03004845  0.19521736    -0.05900
N1149       N  0.97785436  0.44016464  0.28240976    -0.24700
H1150       H  0.94129851  0.42032245  0.18990840     0.07900
N1151       N  0.57465816  0.01917889  0.19122694    -0.45900
H1152       H  0.91465570  0.05338811  0.19020418     0.07900
C1153       C  0.90966389  0.50840477  0.31919854     0.43600
C1154       C  0.52701816  0.07728939  0.19182178    -0.05400
Co1155     Co  0.96013990  0.04168876  0.24828856     0.73800
N1156       N  0.91571894  0.47875234  0.19622739    -0.45600
C1157       C  0.58569568  0.49831083  0.31768916     0.43900
N1158       N  0.97627026  0.08077395  0.30159000    -0.45600
Co1159     Co  0.95512264  0.46450856  0.25001624     0.73900
C1160       C  0.96726183  0.42324429  0.30462022    -0.05900
C1161       C  0.57217139  0.47030479  0.19180477    -0.05500
N1162       N  0.51688256  0.06145537  0.27837619    -0.25000
N1163       N  0.51693242  0.42119429  0.19419718    -0.45800
H1164       H  0.57487285  0.44872066  0.30939648     0.07900
C1165       C  0.92124897  0.03052567  0.30481858    -0.05900
Cl1166     Cl  0.49631617  0.00085029  0.24749482    -0.48900
C1167       C  0.90369007  0.00384820  0.18155985     0.43600
H1168       H  0.55215137  0.08134668  0.30413663     0.07900
N1169       N  0.91820525  0.48322146  0.30501557    -0.45600
C1170       C  0.58935053  0.18455642  0.50238008     0.43500
N1171       N  0.56102416  0.22000998  0.48745228     0.02400
C1172       C  0.96495553  0.30732902  0.07300570    -0.05500
H1173       H  0.94257442  0.19243147  0.07808610     0.07900
C1174       C  0.91908133  0.19651873  0.47026685    -0.05800
Co1175     Co  0.53408754  0.25291081  0.03918043     0.74200
N1176       N  0.97694957  0.21966124  0.05885907    -0.25000
Co1177     Co  0.95462019  0.25110772  0.03306538     0.74100
C1178       C  0.90578795  0.18300773  0.49672009     0.43600
N1179       N  0.98611588  0.21655998  0.43733736     0.02000
N1180       N  0.93429631  0.21748509  0.00819215     0.02100
N1181       N  0.51794367  0.30717546  0.07694003    -0.45900
H1182       H  0.57768458  0.19383173  0.05285415     0.07900
N1183       N  0.50889883  0.22084890  0.06122640     0.02400
N1184       N  0.93341413  0.28254318  0.00657534     0.02100
C1185       C  0.90775249  0.32104125  0.49296424     0.43700
N1186       N  0.51750272  0.21762432  0.43731978    -0.24500
C1187       C  0.57578716  0.30689943  0.02674863    -0.05400
N1188       N  0.57917849  0.19877918  0.47794274    -0.45600
N1189       N  0.91631797  0.30457817  0.01610762    -0.45800
C1190       C  0.58632142  0.32210755  0.49800674     0.43500
N1191       N  0.50810605  0.28558461  0.05944573     0.02400
N1192       N  0.51573678  0.28205083  0.43551299    -0.24500
N1193       N  0.55904316  0.22035954  0.01774261    -0.25000
N1194       N  0.98682141  0.28143880  0.43565843     0.02000
H1195       H  0.54952897  0.30890980  0.41461451     0.07900
H1196       H  0.91761069  0.30911171  0.44381551     0.07900
N1197       N  0.97621910  0.28469017  0.05703402    -0.25000
N1198       N  0.93593958  0.21878490  0.48074379    -0.24700
N1199       N  0.55912429  0.28475506  0.48553078     0.02400
C1200       C  0.49500044  0.18516090  0.08981057     0.43800
C1201       C  0.52902070  0.19580967  0.42055759    -0.05900
N1202       N  0.93675137  0.28331779  0.47905171    -0.24700
H1203       H  0.91593145  0.19139626  0.44699428     0.07900
N1204       N  0.51909247  0.20020794  0.07958370    -0.45900
H1205       H  0.55265510  0.19200602  0.41694931     0.07900
C1206       C  0.00086556  0.31686423  0.40691256     0.43600
C1207       C  0.57547934  0.19843234  0.02933930    -0.05400
Co1208     Co  0.53886976  0.25110173  0.46111748     0.73800
N1209       N  0.97587088  0.19507252  0.41987436    -0.45600
C1210       C  0.99107421  0.32180766  0.08622628     0.43900
N1211       N  0.57637250  0.30603278  0.47465422    -0.45600
Co1212     Co  0.96099440  0.25000398  0.45773185     0.73900
C1213       C  0.92055768  0.30542343  0.46733679    -0.05900
C1214       C  0.96605402  0.19743446  0.07555934    -0.05500
N1215       N  0.55864179  0.28479257  0.01629807    -0.25000
N1216       N  0.91759452  0.19558540  0.01874835    -0.45800
H1217       H  0.94143565  0.31214691  0.07605461     0.07900
C1218       C  0.52621184  0.30358449  0.41774114    -0.05900
Cl1219     Cl  0.49750709  0.25096100  0.49684530    -0.49500
C1220       C  0.50300409  0.18106105  0.40737807     0.43600
H1221       H  0.57934273  0.31175165  0.05003260     0.07900
N1222       N  0.97673279  0.30218326  0.41741573    -0.45600
C1223       C  0.81836301  0.49745207  0.08611506     0.43500
N1224       N  0.77908586  0.01041298  0.05948858     0.02400
C1225       C  0.69363669  0.42549103  0.46449234    -0.05500
H1226       H  0.80831864  0.42548749  0.44226893     0.07900
C1227       C  0.80273716  0.03094320  0.42198729    -0.05800
Co1228     Co  0.74916216  0.45991734  0.03216923     0.74200
N1229       N  0.78091553  0.44379272  0.47689316    -0.25000
Co1230     Co  0.74812057  0.46827336  0.45506462     0.74100
C1231       C  0.81780126  0.51092481  0.40976466     0.43600
N1232       N  0.77968238  0.06315497  0.48748289     0.02000
N1233       N  0.78048279  0.49511417  0.43530044     0.02100
N1234       N  0.69626073  0.42026930  0.01695595    -0.45900
H1235       H  0.80916481  0.44794204  0.07558128     0.07900
N1236       N  0.78216461  0.44005214  0.00615337     0.02400
N1237       N  0.71520422  0.49357067  0.43449791     0.02100
C1238       C  0.67816461  0.00430964  0.40690260     0.43700
N1239       N  0.77894811  0.06015210  0.01634488    -0.24500
C1240       C  0.69258260  0.46966632  0.07181194    -0.05400
N1241       N  0.79996580  0.02076019  0.07752932    -0.45600
N1242       N  0.69416160  0.48320069  0.41666387    -0.45800
C1243       C  0.67609935  0.99507728  0.08565434     0.43500
N1244       N  0.71711662  0.43845696  0.00677964     0.02400
N1245       N  0.71375171  0.05987958  0.01719447    -0.24500
N1246       N  0.78139138  0.48209352  0.05682848    -0.25000
N1247       N  0.71434517  0.06310732  0.48768643     0.02000
H1248       H  0.68695891  0.07821251  0.05232226     0.07900
H1249       H  0.68749236  0.05402933  0.41652820     0.07900
N1250       N  0.71577118  0.44215060  0.47593676    -0.25000
N1251       N  0.77956854  0.02016772  0.43752482    -0.24700
N1252       N  0.71377205  0.00967227  0.05969773     0.02400
C1253       C  0.81797852  0.41425281  0.49166756     0.43800
C1254       C  0.80218130  0.07569965  0.02707049    -0.05900
N1255       N  0.71430535  0.02008550  0.43718920    -0.24700
H1256       H  0.80801589  0.05422366  0.41931150     0.07900
N1257       N  0.80391760  0.42265515  0.01584950    -0.45900
H1258       H  0.80799601  0.07773420  0.05016896     0.07900
C1259       C  0.67812585  0.09088675  0.50215094     0.43600
C1260       C  0.80415252  0.47125560  0.07291593    -0.05400
Co1261     Co  0.74638393  0.03546002  0.03870515     0.73800
N1262       N  0.80142918  0.08053972  0.47755975    -0.45600
C1263       C  0.67922971  0.41173676  0.49037022     0.43900
N1264       N  0.69146143  0.01933432  0.07653633    -0.45600
Co1265     Co  0.74692363  0.04222736  0.46198120     0.73900
C1266       C  0.69214253  0.03072486  0.42009678    -0.05900
C1267       C  0.80360265  0.42786622  0.46572247    -0.05500
N1268       N  0.71590749  0.48115150  0.05700812    -0.25000
N1269       N  0.80300562  0.48617755  0.41835775    -0.45800
H1270       H  0.68857981  0.42335589  0.44109376     0.07900
C1271       C  0.69164114  0.07611896  0.02882144    -0.05900
Cl1272     Cl  0.74720136  0.00085327  0.49741864    -0.48900
C1273       C  0.81671759  0.08992371  0.50172986     0.43600
H1274       H  0.68776195  0.44620830  0.07322552     0.07900
N1275       N  0.69310205  0.08113173  0.47792221    -0.45600
C1276       C  0.88046786  0.36248346  0.46686064     0.24600
C1277       C  0.88616336  0.34616631  0.49298756    -0.23500
C1278       C  0.86578068  0.34772636  0.01605229     0.19500
C1279       C  0.84455179  0.37046480  0.01604910     0.24600
C1280       C  0.84237979  0.39181012  0.49233346    -0.23400
C1281       C  0.85890895  0.38495874  0.46653482     0.19500
F1282       F  0.85467667  0.40005639  0.44078013    -0.13400
F1283       F  0.89591212  0.35718534  0.44142355    -0.15700
F1284       F  0.82484071  0.37197751  0.03902031    -0.15700
F1285       F  0.86586316  0.32812773  0.03903254    -0.13400
C1286       C  0.86795346  0.15198304  0.02216926     0.24600
C1287       C  0.88382078  0.15841591  0.49824244    -0.23500
C1288       C  0.87993117  0.13870271  0.47417115     0.19500
C1289       C  0.85840550  0.11617329  0.47555035     0.24600
C1290       C  0.84050800  0.11272235  0.50105103    -0.23400
C1291       C  0.84573282  0.13019604  0.02354811     0.19500
F1292       F  0.82739142  0.12975384  0.04762123    -0.13400
F1293       F  0.87042169  0.17133059  0.04524150    -0.15700
F1294       F  0.85534850  0.09748476  0.45199843    -0.15700
F1295       F  0.89717736  0.14073633  0.44939297    -0.13400
C1296       C  0.63847903  0.38574520  0.51822802     0.24600
C1297       C  0.65434064  0.38998362  0.49147988    -0.23500
C1298       C  0.64679338  0.37254946  0.46659906     0.19500
C1299       C  0.62438146  0.35091383  0.46866318     0.24600
C1300       C  0.60893721  0.34620389  0.49565736    -0.23400
C1301       C  0.61595150  0.36428181  0.52026087     0.19500
F1302       F  0.60148005  0.36123638  0.04786566    -0.13400
F1303       F  0.64479451  0.40282104  0.04424159    -0.15700
F1304       F  0.61849678  0.33403883  0.44428250    -0.15700
F1305       F  0.66179880  0.37542029  0.44049783    -0.13400
C1306       C  0.62876456  0.15390772  0.02898574     0.24600
C1307       C  0.61136548  0.15997503  0.50200504    -0.23500
C1308       C  0.63051763  0.15611374  0.47742199     0.19500
C1309       C  0.65179118  0.13332042  0.47723339     0.24600
C1310       C  0.65451621  0.11398891  0.50171846    -0.23400
C1311       C  0.64991699  0.13120080  0.02894092     0.19500
F1312       F  0.66701046  0.12762902  0.05361682    -0.13400
F1313       F  0.62654191  0.17117304  0.05365029    -0.15700
F1314       F  0.67028306  0.13081545  0.45336358    -0.15700
F1315       F  0.62935400  0.17494843  0.45383998    -0.13400
C1316       C  0.88527473  0.02727985  0.36468791     0.24600
C1317       C  0.88750644  0.50983852  0.34366916    -0.23500
C1318       C  0.88302957  0.48521880  0.36242395     0.19500
C1319       C  0.86086477  0.48590468  0.38443539     0.24600
C1320       C  0.84273031  0.51121790  0.38810813    -0.23400
C1321       C  0.86300673  0.02735587  0.38648450     0.19500
F1322       F  0.86152753  0.05071700  0.40553933    -0.13400
F1323       F  0.90449203  0.05062376  0.36335773    -0.15700
F1324       F  0.85723027  0.46178459  0.40223959    -0.15700
F1325       F  0.90019009  0.46046970  0.35956573    -0.13400
C1326       C  0.62749923  0.47598968  0.34714372     0.24600
C1327       C  0.60793314  0.49983954  0.34194391    -0.23500
C1328       C  0.61099634  0.52594321  0.35897408     0.19500
C1329       C  0.63531976  0.02679718  0.37830260     0.24600
C1330       C  0.65435438  0.00253158  0.38398345    -0.23400
C1331       C  0.65063716  0.97627214  0.36722961     0.19500
F1332       F  0.66874287  0.95241212  0.37153869    -0.13400
F1333       F  0.62590848  0.45073411  0.33068971    -0.15700
F1334       F  0.63728138  0.05214991  0.39455398    -0.15700
F1335       F  0.59195830  0.54913207  0.35503549    -0.13400
C1336       C  0.64360169  0.02172643  0.12263405     0.24600
C1337       C  0.65040944  0.99563716  0.10666460    -0.23500
C1338       C  0.63280312  0.97009827  0.11159358     0.19500
C1339       C  0.61039489  0.97005392  0.13333949     0.24600
C1340       C  0.60497270  0.99555714  0.15068005    -0.23400
C1341       C  0.62111990  0.02171440  0.14428783     0.19500
F1342       F  0.61587248  0.04726336  0.15954454    -0.13400
F1343       F  0.65924103  0.04721372  0.11803252    -0.15700
F1344       F  0.60350625  0.44255429  0.14507430    -0.15700
F1345       F  0.64526524  0.44235948  0.10311693    -0.13400
C1346       C  0.88073511  0.47489449  0.13914683     0.24600
C1347       C  0.88150799  0.00249303  0.15719003    -0.23500
C1348       C  0.86494399  0.02774083  0.14882702     0.19500
C1349       C  0.84386094  0.02598125  0.12599027     0.24600
C1350       C  0.84212418  0.49868909  0.10911149    -0.23400
C1351       C  0.85973200  0.47362542  0.11606845     0.19500
F1352       F  0.85707559  0.44791519  0.10048771    -0.13400
F1353       F  0.89731244  0.45033845  0.14524097    -0.15700
F1354       F  0.82828547  0.05092324  0.11891000    -0.15700
F1355       F  0.86823713  0.05407037  0.16320532    -0.13400
C1356       C  0.52716066  0.11705854  0.35802120     0.24600
C1357       C  0.99958461  0.11192211  0.34186035    -0.23500
C1358       C  0.97473108  0.13082563  0.34576910     0.19500
C1359       C  0.97449755  0.15221984  0.36847261     0.24600
C1360       C  0.50259805  0.15758992  0.38431567    -0.23400
C1361       C  0.52725423  0.13854993  0.38047260     0.19500
F1362       F  0.55129299  0.14009480  0.39885814    -0.13400
F1363       F  0.55110501  0.09867445  0.35569517    -0.15700
F1364       F  0.95051361  0.17062339  0.37076324    -0.15700
F1365       F  0.95094087  0.12935648  0.32701819    -0.13400
C1366       C  0.97173512  0.36615125  0.34501413     0.24600
C1367       C  0.99545525  0.38633296  0.34108265    -0.23500
C1368       C  0.52093187  0.36909629  0.34156271     0.19500
C1369       C  0.52257918  0.34650367  0.36280252     0.24600
C1370       C  0.99939070  0.34071335  0.38421969    -0.23400
C1371       C  0.97368704  0.34361189  0.36630273     0.19500
F1372       F  0.95059807  0.32409702  0.36872167    -0.13400
F1373       F  0.94703863  0.36732243  0.32748104    -0.15700
F1374       F  0.54826225  0.33053234  0.36474933    -0.15700
F1375       F  0.54533876  0.37431203  0.32429568    -0.13400
C1376       C  0.97103343  0.39006312  0.13180295     0.24600
C1377       C  0.49357991  0.38985811  0.15428732    -0.23500
C1378       C  0.51637376  0.36829874  0.15324227     0.19500
C1379       C  0.51661441  0.34668981  0.13083414     0.24600
C1380       C  0.99137508  0.34488444  0.10968094    -0.23400
C1381       C  0.97114978  0.36883007  0.10891970     0.19500
F1382       F  0.95206396  0.37211281  0.08564426    -0.13400
F1383       F  0.95190099  0.41343972  0.13007417    -0.15700
F1384       F  0.53831519  0.32555915  0.13127885    -0.15700
F1385       F  0.53787066  0.36736873  0.17458045    -0.13400
C1386       C  0.52549623  0.12469380  0.14028707     0.24600
C1387       C  0.49946023  0.11459071  0.15486398    -0.23500
C1388       C  0.96985856  0.11949410  0.14035178     0.19500
C1389       C  0.96808867  0.14235330  0.11923926     0.24600
C1390       C  0.49632807  0.16084436  0.11210094    -0.23400
C1391       C  0.52394049  0.14757177  0.11928701     0.19500
F1392       F  0.54967459  0.15658050  0.10593090    -0.13400
F1393       F  0.55267052  0.11260201  0.14603276    -0.15700
F1394       F  0.94086330  0.14880266  0.10761663    -0.15700
F1395       F  0.94433099  0.10497171  0.14803909    -0.13400
C1396       C  0.50101563  0.09036875  0.67756163     0.43500
N1397       N  0.98594398  0.06235705  0.71474603     0.02400
C1398       C  0.57449392  0.47140594  0.80133773    -0.05500
H1399       H  0.57489609  0.44648611  0.68684861     0.07900
C1400       C  0.96523421  0.42443079  0.69514010    -0.05800
Co1401     Co  0.53858462  0.03572637  0.74627421     0.74200
N1402       N  0.55679899  0.48130010  0.71401652    -0.25000
Co1403     Co  0.53306516  0.45928567  0.74692659     0.74100
C1404       C  0.49191484  0.41196944  0.67734068     0.43600
N1405       N  0.93410270  0.49237968  0.71489224     0.02000
N1406       N  0.50708015  0.43772714  0.71482606     0.02100
N1407       N  0.57657558  0.02058581  0.80083952    -0.45900
H1408       H  0.55079527  0.07878062  0.68624578     0.07900
N1409       N  0.55854889  0.00937564  0.71398692     0.02400
N1410       N  0.50828728  0.43827641  0.78004118     0.02100
C1411       C  0.99221583  0.41291402  0.81772438     0.43700
N1412       N  0.93573077  0.01927852  0.71662161    -0.24500
C1413       C  0.52942844  0.07814431  0.80022385    -0.05400
N1414       N  0.97541939  0.08033169  0.69397904    -0.45600
N1415       N  0.51906437  0.42080859  0.80113764    -0.45800
C1416       C  0.00245488  0.09222819  0.81461443     0.43500
N1417       N  0.55966086  0.01040768  0.77894170     0.02400
N1418       N  0.93722746  0.02082249  0.78149319    -0.24500
N1419       N  0.51626414  0.06018714  0.71378937    -0.25000
N1420       N  0.93400691  0.49466751  0.77994224     0.02000
H1421       H  0.91968065  0.05610827  0.80859074     0.07900
H1422       H  0.94221199  0.42330925  0.80822515     0.07900
N1423       N  0.55809371  0.48197783  0.77877163    -0.25000
N1424       N  0.97643263  0.44163594  0.71681759    -0.24700
N1425       N  0.98745417  0.06375496  0.77938778     0.02400
C1426       C  0.58548363  0.99448053  0.67734352     0.43800
C1427       C  0.92012034  0.02970546  0.69341498    -0.05900
N1428       N  0.97668245  0.44350937  0.78166248    -0.24700
H1429       H  0.94168809  0.42132063  0.69039407     0.07900
N1430       N  0.57608914  0.01880969  0.69224157    -0.45900
H1431       H  0.91819060  0.05292978  0.68768348     0.07900
C1432       C  0.90718691  0.51066583  0.81606306     0.43600
C1433       C  0.52725599  0.07652843  0.69138105    -0.05400
Co1434     Co  0.96110667  0.04201184  0.74806612     0.73800
N1435       N  0.91734226  0.48177636  0.69306487    -0.45600
C1436       C  0.58746810  0.49774931  0.81551386     0.43900
N1437       N  0.97789539  0.08212543  0.80033879    -0.45600
Co1438     Co  0.95467332  0.46767248  0.74841909     0.73900
C1439       C  0.96579232  0.42653764  0.80374820    -0.05900
C1440       C  0.57223218  0.46997171  0.69119516    -0.05500
N1441       N  0.51760028  0.06149205  0.77849386    -0.25000
N1442       N  0.51656548  0.42123153  0.69224963    -0.45800
H1443       H  0.57681845  0.44811214  0.80686059     0.07900
C1444       C  0.92168897  0.03260508  0.80401870    -0.05900
Cl1445     Cl  0.49653740  0.00090427  0.74802215    -0.48900
C1446       C  0.90733039  0.00327024  0.67917573     0.43600
H1447       H  0.55311734  0.08076902  0.80429674     0.07900
N1448       N  0.91653883  0.48580529  0.80200253    -0.45600
C1449       C  0.58899529  0.18369373  0.00365442     0.43500
N1450       N  0.56150806  0.21957561  0.98849424     0.02400
C1451       C  0.96670449  0.30730024  0.57526718    -0.05500
H1452       H  0.94252460  0.19323041  0.57916408     0.07900
C1453       C  0.92112730  0.19334840  0.96863527    -0.05800
Co1454     Co  0.53334331  0.25312118  0.53808916     0.74200
N1455       N  0.97714347  0.22043461  0.56008866    -0.25000
Co1456     Co  0.95521799  0.25241538  0.53466798     0.74100
C1457       C  0.90858322  0.17918534  0.99518702     0.43600
N1458       N  0.98681417  0.21662374  0.93573009     0.02000
N1459       N  0.93365009  0.21954481  0.50998386     0.02100
N1460       N  0.51616210  0.30815340  0.57461012    -0.45900
H1461       H  0.57930871  0.19521478  0.55169801     0.07900
N1462       N  0.50855347  0.22046243  0.56030020     0.02400
N1463       N  0.93452864  0.28445551  0.50829087     0.02100
C1464       C  0.90720458  0.31952654  0.99173028     0.43700
N1465       N  0.51870846  0.21799374  0.93796401    -0.24500
C1466       C  0.57367320  0.30837157  0.52482657    -0.05400
N1467       N  0.57932383  0.19802617  0.97910137    -0.45600
N1468       N  0.91727914  0.30655029  0.51754641    -0.45800
C1469       C  0.58922393  0.32025834  0.00022669     0.43500
N1470       N  0.50679618  0.28555983  0.55815415     0.02400
N1471       N  0.51771740  0.28258163  0.93680030    -0.24500
N1472       N  0.55887143  0.22082558  0.51672931    -0.25000
N1473       N  0.98605986  0.28143299  0.93392247     0.02000
H1474       H  0.55193346  0.31021354  0.91758197     0.07900
H1475       H  0.91737938  0.30912256  0.94249141     0.07900
N1476       N  0.97772958  0.28513168  0.55864480    -0.25000
N1477       N  0.93662266  0.21678105  0.97893303    -0.24700
N1478       N  0.56082629  0.28416364  0.98704431     0.02400
C1479       C  0.49502510  0.18409642  0.58846704     0.43800
C1480       C  0.53026120  0.19618964  0.92120358    -0.05900
N1481       N  0.93584088  0.28187264  0.97732750    -0.24700
H1482       H  0.91846303  0.18758810  0.94541687     0.07900
N1483       N  0.51895141  0.19962088  0.57837420    -0.45900
H1484       H  0.55389736  0.19237086  0.91785022     0.07900
C1485       C  0.99978432  0.31741554  0.90534856     0.43600
C1486       C  0.57599905  0.19925811  0.52820407    -0.05400
Co1487     Co  0.54019537  0.25107673  0.96219534     0.73800
N1488       N  0.97714844  0.19525122  0.91790687    -0.45600
C1489       C  0.99293538  0.32123630  0.58876596     0.43900
N1490       N  0.57901424  0.30483341  0.97656260    -0.45600
Co1491     Co  0.96081244  0.24916842  0.95598400     0.73900
C1492       C  0.91999598  0.30443409  0.96587668    -0.05900
C1493       C  0.96601359  0.19832160  0.57675170    -0.05500
N1494       N  0.55722431  0.28551484  0.51480421    -0.25000
N1495       N  0.91568105  0.19862238  0.52045832    -0.45800
H1496       H  0.94319157  0.31192987  0.57863844     0.07900
C1497       C  0.52859377  0.30476668  0.92007384    -0.05900
Cl1498     Cl  0.49857546  0.25133965  0.99770233    -0.49500
C1499       C  0.50429177  0.18142198  0.90789208     0.43600
H1500       H  0.57707244  0.31366343  0.54803705     0.07900
N1501       N  0.97582320  0.30217569  0.91566227    -0.45600
C1502       C  0.81570976  0.49771808  0.58669225     0.43500
N1503       N  0.78039811  0.01068837  0.55958913     0.02400
C1504       C  0.69494267  0.42359947  0.96671660    -0.05500
H1505       H  0.80941545  0.42374983  0.94225989     0.07900
C1506       C  0.79978322  0.03168275  0.92082274    -0.05800
Co1507     Co  0.74715014  0.46044422  0.53153987     0.74200
N1508       N  0.78198445  0.44263974  0.97690117    -0.25000
Co1509     Co  0.74847063  0.46652501  0.95538181     0.74100
C1510       C  0.81574999  0.50925176  0.90662901     0.43600
N1511       N  0.77872341  0.06257789  0.98709642     0.02000
N1512       N  0.78009695  0.49314204  0.93414037     0.02100
N1513       N  0.69412750  0.42133583  0.51464024    -0.45900
H1514       H  0.80753329  0.44834373  0.57447250     0.07900
N1515       N  0.78068994  0.44079675  0.50606481     0.02400
N1516       N  0.71469490  0.49139768  0.93534683     0.02100
C1517       C  0.67439595  0.00386870  0.91046630     0.43700
N1518       N  0.77966446  0.06073683  0.51672949    -0.24500
C1519       C  0.69023816  0.46975899  0.57073998    -0.05400
N1520       N  0.80252099  0.02064139  0.57649115    -0.45600
N1521       N  0.69299171  0.48099881  0.91826071    -0.45800
C1522       C  0.67791999  0.99548491  0.58679961     0.43500
N1523       N  0.71548308  0.43932504  0.50513020     0.02400
N1524       N  0.71455885  0.06071874  0.51695573    -0.24500
N1525       N  0.77883087  0.48246837  0.55717690    -0.25000
N1526       N  0.71327909  0.06256324  0.98802253     0.02000
H1527       H  0.68807698  0.08075376  0.55158879     0.07900
H1528       H  0.68367956  0.05341034  0.92131614     0.07900
N1529       N  0.71692823  0.44074119  0.97753640    -0.25000
N1530       N  0.77765126  0.02005905  0.93703253    -0.24700
N1531       N  0.71481237  0.01034726  0.55996495     0.02400
C1532       C  0.81930169  0.41357125  0.99164535     0.43800
C1533       C  0.80230538  0.07679407  0.52776519    -0.05900
N1534       N  0.71258430  0.01937848  0.93822755    -0.24700
H1535       H  0.80460848  0.05516673  0.91883236     0.07900
N1536       N  0.80228984  0.42318668  0.51579072    -0.45900
H1537       H  0.80764568  0.07904494  0.55112385     0.07900
C1538       C  0.67717728  0.08995245  0.00322312     0.43600
C1539       C  0.80173496  0.47160519  0.57301667    -0.05400
Co1540     Co  0.74730935  0.03609344  0.53889955     0.73800
N1541       N  0.80088376  0.07930804  0.97684120    -0.45600
C1542       C  0.68128134  0.41008860  0.99301593     0.43900
N1543       N  0.69287891  0.01988278  0.57736431    -0.45600
Co1544     Co  0.74551639  0.04169412  0.96211346     0.73900
C1545       C  0.68914438  0.03011304  0.92310774    -0.05900
C1546       C  0.80470858  0.42671474  0.96567127    -0.05500
N1547       N  0.71349588  0.48133582  0.55586721    -0.25000
N1548       N  0.80176148  0.48431343  0.91605137    -0.45800
H1549       H  0.68960131  0.42088057  0.94343533     0.07900
C1550       C  0.69246077  0.07746250  0.52812832    -0.05900
Cl1551     Cl  0.74636124  0.00022336  0.99735465    -0.48900
C1552       C  0.81674550  0.08834434  0.00077124     0.43600
H1553       H  0.68556043  0.44629410  0.57269433     0.07900
N1554       N  0.69182916  0.08055874  0.97865829    -0.45600
C1555       C  0.88498153  0.36528961  0.96872165     0.24600
C1556       C  0.88587821  0.34459009  0.99216324    -0.23500
C1557       C  0.87056528  0.35384996  0.51914288     0.19500
C1558       C  0.84898786  0.37638845  0.51883000     0.24600
C1559       C  0.84295393  0.39061422  0.99215777    -0.23400
C1560       C  0.86367791  0.38808418  0.96869996     0.19500
F1561       F  0.86379840  0.40796900  0.94599358    -0.13400
F1562       F  0.90510847  0.36396199  0.94611537    -0.15700
F1563       F  0.83420536  0.38260226  0.54450794    -0.15700
F1564       F  0.87560851  0.33917195  0.54505766    -0.13400
C1565       C  0.86615600  0.15463704  0.52390590     0.24600
C1566       C  0.88647457  0.15456931  0.99694366    -0.23500
C1567       C  0.88284141  0.13406389  0.97346875     0.19500
C1568       C  0.86042692  0.11222387  0.97484223     0.24600
C1569       C  0.84148228  0.11027165  0.99981931    -0.23400
C1570       C  0.84479055  0.13203033  0.52531803     0.19500
F1571       F  0.82745276  0.13006860  0.55003979    -0.13400
F1572       F  0.86875823  0.17342568  0.54743361    -0.15700
F1573       F  0.85747216  0.09279372  0.95186750    -0.15700
F1574       F  0.90114955  0.13476458  0.94935830    -0.13400
C1575       C  0.64026756  0.38450567  0.02061886     0.24600
C1576       C  0.65736372  0.38756838  0.99450594    -0.23500
C1577       C  0.65195639  0.36836640  0.97044066     0.19500
C1578       C  0.62976511  0.34662073  0.97237951     0.24600
C1579       C  0.61248068  0.34359050  0.99844602    -0.23400
C1580       C  0.61795904  0.36283184  0.02254856     0.19500
F1581       F  0.60097272  0.36159565  0.54638133    -0.13400
F1582       F  0.64461276  0.40253321  0.54260323    -0.15700
F1583       F  0.62586465  0.32801775  0.94888128    -0.15700
F1584       F  0.66886833  0.36968811  0.94537763    -0.13400
C1585       C  0.61356481  0.14017320  0.52612800     0.24600
C1586       C  0.61129718  0.15949763  0.00358665    -0.23500
C1587       C  0.61585303  0.14215254  0.97789164     0.19500
C1588       C  0.63712305  0.11934987  0.97783689     0.24600
C1589       C  0.65423023  0.11353224  0.00345142    -0.23400
C1590       C  0.63488646  0.11743634  0.52598072     0.19500
F1591       F  0.63570818  0.09840753  0.54938635    -0.13400
F1592       F  0.59462504  0.14221070  0.54966308    -0.15700
F1593       F  0.64073323  0.10279942  0.95279503    -0.15700
F1594       F  0.59954456  0.14701619  0.95286737    -0.13400
C1595       C  0.86678288  0.03216996  0.84658643     0.24600
C1596       C  0.88475558  0.51104797  0.84012622    -0.23500
C1597       C  0.88107864  0.48598252  0.85845444     0.19500
C1598       C  0.85875612  0.48549173  0.88023105     0.24600
C1599       C  0.83977277  0.51009795  0.88412460    -0.23400
C1600       C  0.84378515  0.03169901  0.86749236     0.19500
F1601       F  0.82527089  0.05556084  0.86898683    -0.13400
F1602       F  0.86955188  0.05658943  0.82909431    -0.15700
F1603       F  0.85592204  0.46101215  0.89767750    -0.15700
F1604       F  0.89926856  0.46197744  0.85547675    -0.13400
C1605       C  0.62598049  0.47407805  0.84871460     0.24600
C1606       C  0.60912910  0.49919408  0.84053371    -0.23500
C1607       C  0.61366325  0.52598575  0.85616008     0.19500
C1608       C  0.63739272  0.02830926  0.87577712     0.24600
C1609       C  0.64933245  0.00241446  0.88878756    -0.23400
C1610       C  0.63799473  0.97461317  0.87972092     0.19500
F1611       F  0.64774188  0.94903687  0.89250789    -0.13400
F1612       F  0.62311486  0.44791703  0.83397122    -0.15700
F1613       F  0.64654914  0.05576692  0.88426132    -0.15700
F1614       F  0.59747861  0.55062047  0.84940761    -0.13400
C1615       C  0.64577448  0.02172314  0.62438688     0.24600
C1616       C  0.65282920  0.99567584  0.60847003    -0.23500
C1617       C  0.63605298  0.96973371  0.61406288     0.19500
C1618       C  0.61395106  0.96938744  0.63604159     0.24600
C1619       C  0.60776018  0.99505979  0.65284549    -0.23400
C1620       C  0.62349605  0.02143713  0.64625718     0.19500
F1621       F  0.61791933  0.04698755  0.66139572    -0.13400
F1622       F  0.66082631  0.04748176  0.61936063    -0.15700
F1623       F  0.59535338  0.44473979  0.63819140    -0.15700
F1624       F  0.63708417  0.44459852  0.59544359    -0.13400
C1625       C  0.87459944  0.47543838  0.64344802     0.24600
C1626       C  0.88671523  0.00139241  0.65322056    -0.23500
C1627       C  0.87848082  0.02686616  0.63687962     0.19500
C1628       C  0.85703336  0.02501967  0.61426297     0.24600
C1629       C  0.84112820  0.49914156  0.60788128    -0.23400
C1630       C  0.85195433  0.47343653  0.62211073     0.19500
F1631       F  0.84009328  0.44627327  0.61640167    -0.13400
F1632       F  0.88405251  0.44997998  0.65666660    -0.15700
F1633       F  0.84963981  0.05019790  0.59930381    -0.15700
F1634       F  0.89088478  0.05378375  0.64259687    -0.13400
C1635       C  0.52917085  0.11827445  0.85739352     0.24600
C1636       C  0.00199990  0.11424421  0.83908916    -0.23500
C1637       C  0.97691613  0.13272994  0.84327563     0.19500
C1638       C  0.97656102  0.15381773  0.86613816     0.24600
C1639       C  0.50390712  0.15761350  0.88501303    -0.23400
C1640       C  0.52933861  0.13988888  0.87976107     0.19500
F1641       F  0.55437558  0.14287233  0.89656726    -0.13400
F1642       F  0.55398961  0.10128637  0.85379898    -0.15700
F1643       F  0.95217280  0.17161592  0.86899974    -0.15700
F1644       F  0.95293921  0.13103522  0.82477186    -0.13400
C1645       C  0.96799342  0.37719221  0.85421491     0.24600
C1646       C  0.99391324  0.38908141  0.84083323    -0.23500
C1647       C  0.52364000  0.37084119  0.84397094     0.19500
C1648       C  0.52534971  0.34850543  0.86552711     0.24600
C1649       C  0.99805703  0.34221870  0.88330914    -0.23400
C1650       C  0.97004428  0.35408337  0.87503782     0.19500
F1651       F  0.94431833  0.34336652  0.88706208    -0.13400
F1652       F  0.94040480  0.38762272  0.84728328    -0.15700
F1653       F  0.55046028  0.33157445  0.86669558    -0.15700
F1654       F  0.54741963  0.37486665  0.82555636    -0.13400
C1655       C  0.96973711  0.38762175  0.63538342     0.24600
C1656       C  0.49204518  0.39160717  0.65119004    -0.23500
C1657       C  0.51906273  0.37927200  0.64072987     0.19500
C1658       C  0.51896061  0.35791036  0.61803749     0.24600
C1659       C  0.99322761  0.34475867  0.61182036    -0.23400
C1660       C  0.97033700  0.36621474  0.61280057     0.19500
F1661       F  0.94886756  0.36702384  0.59145116    -0.13400
F1662       F  0.94764050  0.40832902  0.63519181    -0.15700
F1663       F  0.54556022  0.34637552  0.60905254    -0.15700
F1664       F  0.54572493  0.38738380  0.65276130    -0.13400
C1665       C  0.52591453  0.12843336  0.64429786     0.24600
C1666       C  0.49989193  0.11349172  0.65389017    -0.23500
C1667       C  0.97010603  0.12872576  0.64993087     0.19500
C1668       C  0.96826347  0.15130182  0.62865653     0.24600
C1669       C  0.49653881  0.15939081  0.61053400    -0.23400
C1670       C  0.52424460  0.15101861  0.62294670     0.19500
F1671       F  0.54996125  0.16495310  0.61483821    -0.13400
F1672       F  0.55311892  0.12201000  0.65598549    -0.15700
F1673       F  0.94185204  0.16582852  0.62551878    -0.15700
F1674       F  0.94520104  0.12219428  0.66600703    -0.13400
C1675       C  0.50193064  0.59239567  0.17990381     0.43500
N1676       N  0.98704546  0.56103984  0.21324109     0.02400
C1677       C  0.57375669  0.97118257  0.30164110    -0.05500
H1678       H  0.57346388  0.94558317  0.18680633     0.07900
C1679       C  0.96519901  0.92312986  0.19426105    -0.05800
Co1680     Co  0.53930690  0.53690711  0.24713995     0.74200
N1681       N  0.55570308  0.98043206  0.21439647    -0.25000
Co1682     Co  0.53149444  0.95922225  0.24791544     0.74100
C1683       C  0.49075701  0.90855881  0.18121828     0.43600
N1684       N  0.93252636  0.98995636  0.21702515     0.02000
N1685       N  0.50534053  0.93738404  0.21646255     0.02100
N1686       N  0.57677851  0.52205738  0.30170679    -0.45900
H1687       H  0.55179941  0.58246099  0.18937117     0.07900
N1688       N  0.55992596  0.51097963  0.21431514     0.02400
N1689       N  0.50602248  0.93936026  0.28135477     0.02100
C1690       C  0.99258016  0.91090037  0.31775094     0.43700
N1691       N  0.93649540  0.51834678  0.21625071    -0.24500
C1692       C  0.52876332  0.57847234  0.30184456    -0.05400
N1693       N  0.97647505  0.57831676  0.19187899    -0.45600
N1694       N  0.51616176  0.92216138  0.30295606    -0.45800
C1695       C  0.00337767  0.59177948  0.31391875     0.43500
N1696       N  0.56010093  0.51167792  0.27971396     0.02400
N1697       N  0.93819719  0.52077994  0.28082733    -0.24500
N1698       N  0.51717455  0.56148031  0.21509946    -0.25000
N1699       N  0.93428267  0.99041984  0.28171375     0.02000
H1700       H  0.92145184  0.55691509  0.30723265     0.07900
H1701       H  0.94262904  0.92109466  0.30833991     0.07900
N1702       N  0.55704789  0.98180593  0.27931651    -0.25000
N1703       N  0.97621271  0.93976175  0.21649276    -0.24700
N1704       N  0.98839605  0.56360794  0.27823687     0.02400
C1705       C  0.58470692  0.49592755  0.17593875     0.43800
C1706       C  0.92030854  0.52878666  0.19353684    -0.05900
N1707       N  0.97698818  0.94039848  0.28123083    -0.24700
H1708       H  0.94169359  0.91998488  0.18950310     0.07900
N1709       N  0.57625480  0.52036164  0.19148409    -0.45900
H1710       H  0.91861494  0.55193909  0.18732837     0.07900
C1711       C  0.90921333  0.00428796  0.31985057     0.43600
C1712       C  0.52826459  0.57881779  0.19355556    -0.05400
Co1713     Co  0.96213072  0.54138340  0.24710564     0.73800
N1714       N  0.91412245  0.97985554  0.19631517    -0.45600
C1715       C  0.58739805  0.99747312  0.31518118     0.43900
N1716       N  0.97886029  0.58176945  0.29942448    -0.45600
Co1717     Co  0.95442589  0.96471914  0.24903831     0.73900
C1718       C  0.96612167  0.92387414  0.30354303    -0.05900
C1719       C  0.57101084  0.96905012  0.19139482    -0.05500
N1720       N  0.51749825  0.56196486  0.27965909    -0.25000
N1721       N  0.51510181  0.91883981  0.19574457    -0.45800
H1722       H  0.57609709  0.94792267  0.30732263     0.07900
C1723       C  0.92299157  0.53328250  0.30316021    -0.05900
Cl1724     Cl  0.49740982  0.50153444  0.24777563    -0.48900
C1725       C  0.90650019  0.50248012  0.18028993     0.43600
H1726       H  0.55234919  0.58144624  0.30628495     0.07900
N1727       N  0.91800059  0.98032566  0.30409160    -0.45600
C1728       C  0.58910594  0.68735988  0.50528069     0.43500
N1729       N  0.55971232  0.72166798  0.48981013     0.02400
C1730       C  0.96807334  0.80678832  0.07395107    -0.05500
H1731       H  0.94437318  0.69225206  0.07841600     0.07900
C1732       C  0.92070077  0.69428487  0.46986910    -0.05800
Co1733     Co  0.53385092  0.75032773  0.03901276     0.74200
N1734       N  0.97875975  0.71970903  0.05902340    -0.25000
Co1735     Co  0.95661716  0.75187640  0.03375228     0.74100
C1736       C  0.90814897  0.68092718  0.49687339     0.43600
N1737       N  0.98708433  0.71595063  0.43624829     0.02000
N1738       N  0.93506770  0.71932523  0.00870481     0.02100
N1739       N  0.51799316  0.80407998  0.07856113    -0.45900
H1740       H  0.57643780  0.69012896  0.05152766     0.07900
N1741       N  0.50867830  0.71837188  0.06065871     0.02400
N1742       N  0.93568396  0.78416717  0.00780553     0.02100
C1743       C  0.90791474  0.82074834  0.49043651     0.43700
N1744       N  0.51615632  0.71822215  0.43940743    -0.24500
C1745       C  0.57587256  0.80386248  0.02683495    -0.05400
N1746       N  0.57852824  0.70088527  0.48062779    -0.45600
N1747       N  0.91811852  0.80584007  0.01743519    -0.45800
C1748       C  0.58299612  0.82464418  0.50005883     0.43500
N1749       N  0.50836131  0.78300268  0.06025549     0.02400
N1750       N  0.51438691  0.78294287  0.43720826    -0.24500
N1751       N  0.55777778  0.71745122  0.01694729    -0.25000
N1752       N  0.98649512  0.78065779  0.43348317     0.02000
H1753       H  0.54828267  0.81097597  0.41845451     0.07900
H1754       H  0.91751103  0.80914760  0.44122427     0.07900
N1755       N  0.97916229  0.78446597  0.05766795    -0.25000
N1756       N  0.93667134  0.71758677  0.47954404    -0.24700
N1757       N  0.55718065  0.78636692  0.48742205     0.02400
C1758       C  0.49534085  0.68293524  0.08940925     0.43800
C1759       C  0.52776488  0.69600810  0.42316954    -0.05900
N1760       N  0.93615284  0.78248958  0.47638950    -0.24700
H1761       H  0.91783625  0.68824708  0.44678025     0.07900
N1762       N  0.51923109  0.69789359  0.07891216    -0.45900
H1763       H  0.55141399  0.69213651  0.41989787     0.07900
C1764       C  0.00024397  0.81693093  0.40562896     0.43600
C1765       C  0.57340898  0.69468218  0.02810265    -0.05400
Co1766     Co  0.53740294  0.75222822  0.46304830     0.73800
N1767       N  0.97760913  0.69444675  0.41841876    -0.45600
C1768       C  0.99428940  0.82139278  0.08674490     0.43900
N1769       N  0.57388615  0.80811334  0.47664471    -0.45600
Co1770     Co  0.96105513  0.74909589  0.45585014     0.73900
C1771       C  0.92028443  0.80495435  0.46467937    -0.05900
C1772       C  0.96781723  0.69750504  0.07575481    -0.05500
N1773       N  0.55859278  0.78195528  0.01629904    -0.25000
N1774       N  0.91720499  0.69814474  0.01879105    -0.45800
H1775       H  0.94451780  0.81123358  0.07724764     0.07900
C1776       C  0.52501008  0.80523576  0.42051197    -0.05900
Cl1777     Cl  0.49597354  0.75214424  0.49857079    -0.49500
C1778       C  0.50183585  0.68077507  0.41017820     0.43600
H1779       H  0.57944101  0.80854461  0.05015299     0.07900
N1780       N  0.97625559  0.80159436  0.41556824    -0.45600
C1781       C  0.81523905  0.99705445  0.08781188     0.43500
N1782       N  0.78101618  0.51125328  0.05938417     0.02400
C1783       C  0.69144021  0.92578171  0.46729355    -0.05500
H1784       H  0.80658424  0.92244937  0.44257955     0.07900
C1785       C  0.80215350  0.53627494  0.42287443    -0.05800
Co1786     Co  0.74712949  0.95885700  0.03271050     0.74200
N1787       N  0.77972659  0.94109113  0.47758392    -0.25000
Co1788     Co  0.74700546  0.96557399  0.45605105     0.74100
C1789       C  0.81748956  0.00464308  0.40971728     0.43600
N1790       N  0.77829223  0.56565822  0.48930512     0.02000
N1791       N  0.77951535  0.99094840  0.43525436     0.02100
N1792       N  0.69377713  0.91945683  0.01752176    -0.45900
H1793       H  0.80603297  0.94730520  0.07794589     0.07900
N1794       N  0.77986183  0.93840975  0.00683865     0.02400
N1795       N  0.71438701  0.99084477  0.43516352     0.02100
C1796       C  0.67812162  0.50676499  0.40725112     0.43700
N1797       N  0.77976534  0.56155491  0.01675546    -0.24500
C1798       C  0.69142821  0.96917414  0.07310277    -0.05400
N1799       N  0.80259488  0.52132680  0.07680711    -0.45600
N1800       N  0.69337302  0.98056289  0.41720001    -0.45800
C1801       C  0.67668092  0.49536228  0.08435184     0.43500
N1802       N  0.71479406  0.93750813  0.00740431     0.02400
N1803       N  0.71478559  0.56077245  0.01763407    -0.24500
N1804       N  0.77936776  0.98120974  0.05739268    -0.25000
N1805       N  0.71298329  0.56504659  0.48869046     0.02000
H1806       H  0.68809341  0.58012907  0.05245988     0.07900
H1807       H  0.68591665  0.55643912  0.41832968     0.07900
N1808       N  0.71462264  0.94112398  0.47820771    -0.25000
N1809       N  0.77945573  0.52427048  0.43819294    -0.24700
N1810       N  0.71529438  0.51031580  0.05979220     0.02400
C1811       C  0.81753911  0.91255209  0.49184030     0.43800
C1812       C  0.80242781  0.57786096  0.02750420    -0.05900
N1813       N  0.71424904  0.52274701  0.43738040    -0.24700
H1814       H  0.80687890  0.55976595  0.42128493     0.07900
N1815       N  0.80140029  0.92071031  0.01651792    -0.45900
H1816       H  0.80756400  0.58020497  0.05069327     0.07900
C1817       C  0.67742728  0.59331985  0.50392925     0.43600
C1818       C  0.80144914  0.97060907  0.07451357    -0.05400
Co1819     Co  0.74775651  0.53643708  0.03903203     0.73800
N1820       N  0.80046547  0.58269670  0.47984099    -0.45600
C1821       C  0.67687121  0.91293897  0.49342301     0.43900
N1822       N  0.69236795  0.51972335  0.07601130    -0.45600
Co1823     Co  0.74613325  0.54499776  0.46291037     0.73900
C1824       C  0.69150634  0.53322388  0.42093409    -0.05900
C1825       C  0.80225018  0.92521408  0.46608647    -0.05500
N1826       N  0.71423304  0.98045488  0.05737186    -0.25000
N1827       N  0.80167671  0.98074049  0.41866764    -0.45800
H1828       H  0.68575785  0.92417157  0.44399799     0.07900
C1829       C  0.69244384  0.57702233  0.02900311    -0.05900
Cl1830     Cl  0.74670830  0.50268538  0.49721204    -0.48900
C1831       C  0.81588978  0.59126689  0.50419402     0.43600
H1832       H  0.68683958  0.94575327  0.07567359     0.07900
N1833       N  0.69220602  0.58387287  0.47941583    -0.45600
C1834       C  0.88214691  0.86412241  0.46612627     0.24600
C1835       C  0.88648427  0.84581092  0.49111460    -0.23500
C1836       C  0.86750392  0.84910116  0.01836748     0.19500
C1837       C  0.84509694  0.87078046  0.01806896     0.24600
C1838       C  0.84242922  0.89085605  0.49199435    -0.23400
C1839       C  0.86042391  0.88649152  0.46659705     0.19500
F1840       F  0.85746337  0.90404690  0.44223628    -0.13400
F1841       F  0.89913565  0.86083671  0.44129858    -0.15700
F1842       F  0.82713132  0.87347755  0.04231080    -0.15700
F1843       F  0.87042711  0.83177084  0.04292789    -0.13400
C1844       C  0.87712332  0.64604744  0.02361606     0.24600
C1845       C  0.88640718  0.65616715  0.49949990    -0.23500
C1846       C  0.88061579  0.63710352  0.47531762     0.19500
C1847       C  0.85823987  0.61548691  0.47727030     0.24600
C1848       C  0.84136696  0.61221195  0.50349869    -0.23400
C1849       C  0.85542564  0.62377774  0.02538199     0.19500
F1850       F  0.84886724  0.61259367  0.05260578    -0.13400
F1851       F  0.89028721  0.65539678  0.04920229    -0.15700
F1852       F  0.85315424  0.59767310  0.45337784    -0.15700
F1853       F  0.89658235  0.63906167  0.44971238    -0.13400
C1854       C  0.63586852  0.88734458  0.52135224     0.24600
C1855       C  0.65130821  0.89204706  0.49447318    -0.23500
C1856       C  0.64265281  0.87585289  0.46909140     0.19500
C1857       C  0.61987041  0.85470113  0.47083004     0.24600
C1858       C  0.60520032  0.84907641  0.49801218    -0.23400
C1859       C  0.61295912  0.86624793  0.52309185     0.19500
F1860       F  0.60148237  0.85737581  0.04875722    -0.13400
F1861       F  0.64357245  0.90001076  0.04527377    -0.15700
F1862       F  0.61292791  0.83912867  0.44586450    -0.15700
F1863       F  0.65694263  0.87931160  0.44268405    -0.13400
C1864       C  0.61071874  0.63591572  0.02630630     0.24600
C1865       C  0.61174043  0.66339121  0.50518942    -0.23500
C1866       C  0.63119536  0.66004206  0.48078376     0.19500
C1867       C  0.65241379  0.63722573  0.48035109     0.24600
C1868       C  0.65459681  0.61717872  0.50428736    -0.23400
C1869       C  0.63328542  0.61447669  0.02671484     0.19500
F1870       F  0.63559591  0.59647007  0.05082565    -0.13400
F1871       F  0.59193601  0.63769049  0.04997259    -0.15700
F1872       F  0.67130433  0.63530161  0.45674299    -0.15700
F1873       F  0.63025674  0.67931511  0.45755038    -0.13400
C1874       C  0.86986209  0.53545918  0.34793285     0.24600
C1875       C  0.88782215  0.00325149  0.34482389    -0.23500
C1876       C  0.86891555  0.97846543  0.34839917     0.19500
C1877       C  0.84661394  0.97858520  0.37011802     0.24600
C1878       C  0.84284242  0.00345342  0.38875267    -0.23400
C1879       C  0.84778272  0.53614120  0.36989979     0.19500
F1880       F  0.83039746  0.56077952  0.37208674    -0.13400
F1881       F  0.87267136  0.55950825  0.32993831    -0.15700
F1882       F  0.82797152  0.95478426  0.37197275    -0.15700
F1883       F  0.87106397  0.95451380  0.33009737    -0.13400
C1884       C  0.62871291  0.97445275  0.34515442     0.24600
C1885       C  0.60995995  0.99884127  0.33923983    -0.23500
C1886       C  0.61349459  0.02501178  0.35605067     0.19500
C1887       C  0.63358441  0.52834529  0.38042010     0.24600
C1888       C  0.65357972  0.50463872  0.38519555    -0.23400
C1889       C  0.65006084  0.47836728  0.36843439     0.19500
F1890       F  0.66910078  0.45508837  0.37180034    -0.13400
F1891       F  0.62681427  0.94910991  0.32885662    -0.15700
F1892       F  0.63551678  0.55376659  0.39658139    -0.15700
F1893       F  0.59549454  0.04884851  0.35128211    -0.13400
C1894       C  0.63880454  0.52272512  0.11593156     0.24600
C1895       C  0.65033538  0.49568372  0.10484815    -0.23500
C1896       C  0.63698206  0.46900913  0.11451889     0.19500
C1897       C  0.61493890  0.46913471  0.13658750     0.24600
C1898       C  0.60533841  0.49596946  0.14972834    -0.23400
C1899       C  0.61657172  0.52286092  0.13805143     0.19500
F1900       F  0.60639213  0.54943309  0.14823469    -0.13400
F1901       F  0.64924162  0.54918803  0.10572098    -0.15700
F1902       F  0.59390886  0.94498293  0.13702425    -0.15700
F1903       F  0.63685368  0.94505381  0.09527253    -0.13400
C1904       C  0.87645714  0.97549469  0.14217604     0.24600
C1905       C  0.88476495  0.50125929  0.15553247    -0.23500
C1906       C  0.86749962  0.52634341  0.14828074     0.19500
C1907       C  0.84667139  0.52515549  0.12524380     0.24600
C1908       C  0.83856598  0.99885587  0.11114401    -0.23400
C1909       C  0.85535493  0.97370680  0.11935311     0.19500
F1910       F  0.85188747  0.94730912  0.10518409    -0.13400
F1911       F  0.89219485  0.95068034  0.14929526    -0.15700
F1912       F  0.83036589  0.54994545  0.11942494    -0.15700
F1913       F  0.86962976  0.55186943  0.16423508    -0.13400
C1914       C  0.52711736  0.61735288  0.36006963     0.24600
C1915       C  0.00282376  0.61342434  0.33898458    -0.23500
C1916       C  0.97635490  0.62898309  0.34605069     0.19500
C1917       C  0.97600868  0.65007090  0.36901147     0.24600
C1918       C  0.50154963  0.65671689  0.38745542    -0.23400
C1919       C  0.52692818  0.63880897  0.38264164     0.19500
F1920       F  0.55156943  0.64151350  0.40007116    -0.13400
F1921       F  0.55190489  0.60027215  0.35684418    -0.15700
F1922       F  0.95012797  0.66491803  0.37453931    -0.15700
F1923       F  0.95076213  0.62429227  0.33043018    -0.13400
C1924       C  0.96819373  0.87497174  0.35349642     0.24600
C1925       C  0.99419451  0.88811133  0.34156320    -0.23500
C1926       C  0.52112214  0.87581096  0.34884484     0.19500
C1927       C  0.52275628  0.85290175  0.36972233     0.24600
C1928       C  0.99847198  0.84196942  0.38423528    -0.23400
C1929       C  0.97032598  0.85223265  0.37452295     0.19500
F1930       F  0.94456127  0.84013686  0.38509444    -0.13400
F1931       F  0.94047748  0.88352222  0.34473624    -0.15700
F1932       F  0.54955695  0.83935108  0.37372633    -0.15700
F1933       F  0.54661454  0.88367567  0.33436147    -0.13400
C1934       C  0.96900097  0.88585958  0.13494112     0.24600
C1935       C  0.49164672  0.88602358  0.15705535    -0.23500
C1936       C  0.51750839  0.86864587  0.15244476     0.19500
C1937       C  0.51827157  0.84700968  0.13001987     0.24600
C1938       C  0.99455774  0.84545708  0.10923843    -0.23400
C1939       C  0.96990442  0.86472933  0.11215354     0.19500
F1940       F  0.94678368  0.86366784  0.09260628    -0.13400
F1941       F  0.94496272  0.90420996  0.13665334    -0.15700
F1942       F  0.54337668  0.83028724  0.12685347    -0.15700
F1943       F  0.54197082  0.87203154  0.17005856    -0.13400
C1944       C  0.52526450  0.62128298  0.13809057     0.24600
C1945       C  0.50074299  0.61582154  0.15698673    -0.23500
C1946       C  0.97255012  0.62910307  0.15008839     0.19500
C1947       C  0.97115270  0.65230895  0.12941874     0.24600
C1948       C  0.49710558  0.65994954  0.11266440    -0.23400
C1949       C  0.52348563  0.64325116  0.11622974     0.19500
F1950       F  0.54746306  0.64776330  0.09819233    -0.13400
F1951       F  0.55076978  0.60503754  0.14011593    -0.15700
F1952       F  0.94647085  0.66988016  0.12922386    -0.15700
F1953       F  0.94878204  0.62484919  0.16845765    -0.13400
C1954       C  0.50001286  0.59205724  0.67891299     0.43500
N1955       N  0.98683754  0.56457333  0.71278318     0.02400
C1956       C  0.57258929  0.97052133  0.80247420    -0.05500
H1957       H  0.57505585  0.94519420  0.68822475     0.07900
C1958       C  0.96374873  0.92271346  0.69657946    -0.05800
Co1959     Co  0.53832173  0.53628898  0.74618728     0.74200
N1960       N  0.55594834  0.98019368  0.71460296    -0.25000
Co1961     Co  0.53148010  0.95894722  0.74783293     0.74100
C1962       C  0.48879997  0.91374748  0.67814497     0.43600
N1963       N  0.93312616  0.99010110  0.71739129     0.02000
N1964       N  0.50452684  0.93826298  0.71614491     0.02100
N1965       N  0.57756636  0.52156856  0.80008432    -0.45900
H1966       H  0.54999392  0.58246385  0.68832478     0.07900
N1967       N  0.55888761  0.51053451  0.71339484     0.02400
N1968       N  0.50652542  0.93855815  0.78137706     0.02100
C1969       C  0.99439631  0.91145032  0.81849314     0.43700
N1970       N  0.93670310  0.52155683  0.71389638    -0.24500
C1971       C  0.52721398  0.57688673  0.80141960    -0.05400
N1972       N  0.97673563  0.58220776  0.69151945    -0.45600
N1973       N  0.51702041  0.92118028  0.80274192    -0.45800
C1974       C  0.00099276  0.59386724  0.81410314     0.43500
N1975       N  0.56017474  0.51122679  0.77856395     0.02400
N1976       N  0.93648055  0.52385646  0.77859756    -0.24500
N1977       N  0.51568751  0.56088864  0.71407605    -0.25000
N1978       N  0.93471116  0.99163921  0.78249706     0.02000
H1979       H  0.91822627  0.55952125  0.80478717     0.07900
H1980       H  0.94417490  0.92122838  0.81056766     0.07900
N1981       N  0.55699698  0.98121853  0.77941089    -0.25000
N1982       N  0.97570523  0.93972653  0.71793088    -0.24700
N1983       N  0.98684419  0.56660994  0.77755223     0.02400
C1984       C  0.58430365  0.49581127  0.67557231     0.43800
C1985       C  0.92127548  0.53178822  0.69048982    -0.05900
N1986       N  0.97773625  0.94115120  0.78251446    -0.24700
H1987       H  0.94002141  0.91961173  0.69300981     0.07900
N1988       N  0.57528786  0.52016227  0.69082168    -0.45900
H1989       H  0.91926845  0.55496756  0.68465887     0.07900
C1990       C  0.90861866  0.00709943  0.81938535     0.43600
C1991       C  0.52647953  0.57853835  0.69255049    -0.05400
Co1992     Co  0.96125419  0.54463066  0.74567945     0.73800
N1993       N  0.91630778  0.97965960  0.69550646    -0.45600
C1994       C  0.58552303  0.99678942  0.81687091     0.43900
N1995       N  0.97678531  0.58435838  0.79883322    -0.45600
Co1996     Co  0.95469395  0.96523567  0.75018207     0.73900
C1997       C  0.96752972  0.92459866  0.80519445    -0.05900
C1998       C  0.57221645  0.96870007  0.69234256    -0.05500
N1999       N  0.51615629  0.56078220  0.77888403    -0.25000
N2000       N  0.51360258  0.92223128  0.69315414    -0.45800
H2001       H  0.57427900  0.94723370  0.80807041     0.07900
C2002       C  0.92038116  0.53597643  0.80056350    -0.05900
Cl2003     Cl  0.49708974  0.50030845  0.74710607    -0.48900
C2004       C  0.90848150  0.50523319  0.67647725     0.43600
H2005       H  0.55077149  0.57990430  0.80594162     0.07900
N2006       N  0.91760598  0.98245552  0.80472569    -0.45600
C2007       C  0.58542790  0.67934466  0.00207808     0.43500
N2008       N  0.55964304  0.71680016  0.98765882     0.02400
C2009       C  0.96472281  0.80864506  0.57196608    -0.05500
H2010       H  0.94312220  0.69570108  0.57959446     0.07900
C2011       C  0.92058821  0.69698099  0.96858774    -0.05800
Co2012     Co  0.53153582  0.75501731  0.54002666     0.74200
N2013       N  0.97735106  0.72222282  0.55900559    -0.25000
Co2014     Co  0.95502664  0.75287649  0.53263249     0.74100
C2015       C  0.90723460  0.68298095  0.99476664     0.43600
N2016       N  0.98695685  0.71747011  0.93609623     0.02000
N2017       N  0.93450938  0.71899726  0.50876519     0.02100
N2018       N  0.51383594  0.81038447  0.57585074    -0.45900
H2019       H  0.57879729  0.69845079  0.55442253     0.07900
N2020       N  0.50713084  0.72234656  0.56236043     0.02400
N2021       N  0.93401352  0.78378599  0.50561341     0.02100
C2022       C  0.90852270  0.82065024  0.99309085     0.43700
N2023       N  0.51646457  0.71704949  0.93750577    -0.24500
C2024       C  0.57051995  0.81069315  0.52675792    -0.05400
N2025       N  0.57621023  0.69449428  0.97782869    -0.45600
N2026       N  0.91729490  0.80615720  0.51489342    -0.45800
C2027       C  0.58907212  0.81743823  0.00032649     0.43500
N2028       N  0.50473069  0.78744671  0.55975814     0.02400
N2029       N  0.51697271  0.78202821  0.93751729    -0.24500
N2030       N  0.55752947  0.72285709  0.51907580    -0.25000
N2031       N  0.98780235  0.78235109  0.93497532     0.02000
H2032       H  0.55130086  0.81000038  0.91926811     0.07900
H2033       H  0.91831092  0.80988697  0.94378124     0.07900
N2034       N  0.97649358  0.78659028  0.55576452    -0.25000
N2035       N  0.93723911  0.71915003  0.97946173    -0.24700
N2036       N  0.56060540  0.78151426  0.98704192     0.02400
C2037       C  0.49405823  0.68608161  0.59058793     0.43800
C2038       C  0.52742364  0.69463316  0.92119967    -0.05900
N2039       N  0.93792548  0.78360726  0.97854851    -0.24700
H2040       H  0.91818752  0.69198960  0.94519674     0.07900
N2041       N  0.51785002  0.70168025  0.58046220    -0.45900
H2042       H  0.55096616  0.69004536  0.91817862     0.07900
C2043       C  0.00189181  0.81839496  0.90712142     0.43600
C2044       C  0.57526942  0.70196833  0.53088436    -0.05400
Co2045     Co  0.53899107  0.74931990  0.96195941     0.73800
N2046       N  0.97646892  0.69597206  0.91886418    -0.45600
C2047       C  0.99049173  0.82379387  0.58511709     0.43900
N2048       N  0.57870312  0.80225561  0.97659193    -0.45600
Co2049     Co  0.96206950  0.75066813  0.95678917     0.73900
C2050       C  0.92152693  0.80576667  0.96720152    -0.05900
C2051       C  0.96655960  0.70060951  0.57649905    -0.05500
N2052       N  0.55494157  0.78733904  0.51665473    -0.25000
N2053       N  0.91754938  0.69767135  0.51997822    -0.45800
H2054       H  0.94104691  0.81220200  0.57525522     0.07900
C2055       C  0.52789782  0.80498630  0.92178224    -0.05900
Cl2056     Cl  0.49783314  0.74982663  0.99788539    -0.49500
C2057       C  0.50109788  0.68000897  0.90842044     0.43600
H2058       H  0.57328784  0.81624998  0.54998486     0.07900
N2059       N  0.97768233  0.80374533  0.91748309    -0.45600
C2060       C  0.81836520  0.99663348  0.58541367     0.43500
N2061       N  0.77822847  0.51158860  0.56024274     0.02400
C2062       C  0.69238119  0.92305553  0.96730187    -0.05500
H2063       H  0.80581800  0.92084638  0.94282062     0.07900
C2064       C  0.80071715  0.53445258  0.92048958    -0.05800
Co2065     Co  0.74781140  0.95940430  0.53269149     0.74200
N2066       N  0.77941847  0.94067429  0.97756358    -0.25000
Co2067     Co  0.74630534  0.96495170  0.95587175     0.74100
C2068       C  0.81457007  0.00611513  0.90736771     0.43600
N2069       N  0.77927789  0.56412080  0.98755142     0.02000
N2070       N  0.77828565  0.99087317  0.93449582     0.02100
N2071       N  0.69270003  0.92178121  0.51746597    -0.45900
H2072       H  0.80907393  0.94722750  0.57417612     0.07900
N2073       N  0.78032842  0.93874830  0.50678974     0.02400
N2074       N  0.71287057  0.99018060  0.93569659     0.02100
C2075       C  0.67669256  0.50458429  0.90912692     0.43700
N2076       N  0.77811935  0.56255133  0.51848526    -0.24500
C2077       C  0.69307306  0.96971903  0.57384971    -0.05400
N2078       N  0.79976721  0.52160142  0.57777246    -0.45600
N2079       N  0.69057340  0.98003363  0.91919483    -0.45800
C2080       C  0.67456429  0.49547604  0.58335100     0.43500
N2081       N  0.71486302  0.93853552  0.50741598     0.02400
N2082       N  0.71308111  0.56197975  0.51786249    -0.24500
N2083       N  0.78053841  0.98150072  0.55699228    -0.25000
N2084       N  0.71421951  0.56303364  0.98840680     0.02000
H2085       H  0.68727623  0.58184078  0.55302816     0.07900
H2086       H  0.68533311  0.55427476  0.91955738     0.07900
N2087       N  0.71453601  0.93986750  0.97817457    -0.25000
N2088       N  0.77901637  0.52228853  0.93692101    -0.24700
N2089       N  0.71287166  0.51049580  0.55874389     0.02400
C2090       C  0.81628923  0.91098852  0.99222990     0.43800
C2091       C  0.80101471  0.57801920  0.52996705    -0.05900
N2092       N  0.71396567  0.52058379  0.93793370    -0.24700
H2093       H  0.80501485  0.55803285  0.91848023     0.07900
N2094       N  0.80246798  0.92168342  0.51627910    -0.45900
H2095       H  0.80647727  0.57945771  0.55335648     0.07900
C2096       C  0.67754348  0.58981433  0.00305607     0.43600
C2097       C  0.80366454  0.97056256  0.57243574    -0.05400
Co2098     Co  0.74555969  0.53702846  0.53941734     0.73800
N2099       N  0.80065403  0.58171424  0.97736134    -0.45600
C2100       C  0.67866373  0.90953214  0.99351395     0.43900
N2101       N  0.69012799  0.51983174  0.57507290    -0.45600
Co2102     Co  0.74657222  0.54303397  0.96229553     0.73900
C2103       C  0.69077338  0.53103968  0.92213063    -0.05900
C2104       C  0.80159909  0.92411803  0.96627897    -0.05500
N2105       N  0.71536837  0.98114242  0.55761809    -0.25000
N2106       N  0.80005180  0.98149785  0.91680224    -0.45800
H2107       H  0.68708752  0.92050925  0.94399039     0.07900
C2108       C  0.69136924  0.57886995  0.52949786    -0.05900
Cl2109     Cl  0.74800382  0.50146358  0.99720794    -0.48900
C2110       C  0.81640755  0.59122527  0.00116227     0.43600
H2111       H  0.68888464  0.94622635  0.57658855     0.07900
N2112       N  0.69244733  0.58035912  0.97875380    -0.45600
C2113       C  0.88218250  0.86336616  0.96843946     0.24600
C2114       C  0.88599996  0.84480901  0.99336088    -0.23500
C2115       C  0.86966556  0.85135438  0.51705573     0.19500
C2116       C  0.84787914  0.87354395  0.51746524     0.24600
C2117       C  0.84073451  0.88876506  0.99279874    -0.23400
C2118       C  0.85978883  0.88503362  0.96813589     0.19500
F2119       F  0.85731698  0.90267800  0.94378791    -0.13400
F2120       F  0.90045658  0.86113127  0.94442735    -0.15700
F2121       F  0.83150351  0.87731690  0.54265732    -0.15700
F2122       F  0.87350159  0.83468728  0.54194954    -0.13400
C2123       C  0.87047116  0.65187107  0.52624923     0.24600
C2124       C  0.88504071  0.65852720  0.99600583    -0.23500
C2125       C  0.87101671  0.64776380  0.97006944     0.19500
C2126       C  0.84927650  0.62554137  0.97183291     0.24600
C2127       C  0.84084087  0.61352397  0.99955728    -0.23400
C2128       C  0.84823016  0.63011625  0.52823241     0.19500
F2129       F  0.83255602  0.62773771  0.55399503    -0.13400
F2130       F  0.87554947  0.66938791  0.55035478    -0.15700
F2131       F  0.83622784  0.61621430  0.94617085    -0.15700
F2132       F  0.87749222  0.65902686  0.94283847    -0.13400
C2133       C  0.63880012  0.88239735  0.02117987     0.24600
C2134       C  0.65506690  0.88668031  0.99473999    -0.23500
C2135       C  0.64919560  0.86830822  0.97010114     0.19500
C2136       C  0.62759786  0.84600396  0.97195006     0.24600
C2137       C  0.61144741  0.84152479  0.99850425    -0.23400
C2138       C  0.61712968  0.86014189  0.02303344     0.19500
F2139       F  0.59852971  0.86290102  0.54943440    -0.13400
F2140       F  0.64290103  0.90317154  0.54612864    -0.15700
F2141       F  0.62314063  0.82834859  0.94781735    -0.15700
F2142       F  0.66505761  0.87094873  0.94447924    -0.13400
C2143       C  0.61400082  0.64347595  0.52919500     0.24600
C2144       C  0.60733969  0.65482026  0.00159053    -0.23500
C2145       C  0.62600911  0.65083631  0.97670064     0.19500
C2146       C  0.64854934  0.62942859  0.97710432     0.24600
C2147       C  0.65277632  0.61141035  0.00234110    -0.23400
C2148       C  0.63510831  0.62054923  0.52870519     0.19500
F2149       F  0.63575179  0.60121935  0.55186934    -0.13400
F2150       F  0.59520775  0.64547949  0.55284551    -0.15700
F2151       F  0.66686486  0.62715082  0.95307254    -0.15700
F2152       F  0.62326157  0.66833937  0.95224396    -0.13400
C2153       C  0.86590752  0.53576321  0.84419396     0.24600
C2154       C  0.88549146  0.00730988  0.84283767    -0.23500
C2155       C  0.88081039  0.98201252  0.86066472     0.19500
C2156       C  0.85775796  0.98158380  0.88174330     0.24600
C2157       C  0.83908204  0.00648022  0.88538547    -0.23400
C2158       C  0.84359328  0.53524949  0.86588775     0.19500
F2159       F  0.82486643  0.55891922  0.86785951    -0.13400
F2160       F  0.86790844  0.55999782  0.82632454    -0.15700
F2161       F  0.85391622  0.95691996  0.89874451    -0.15700
F2162       F  0.89868106  0.95774876  0.85786744    -0.13400
C2163       C  0.61670290  0.97263583  0.85703210     0.24600
C2164       C  0.60612339  0.99846270  0.84276593    -0.23500
C2165       C  0.61616314  0.02633760  0.85305092     0.19500
C2166       C  0.63487849  0.52772585  0.87906041     0.24600
C2167       C  0.65237175  0.50276789  0.88660663    -0.23400
C2168       C  0.64712916  0.47579353  0.87151004     0.19500
F2169       F  0.66301603  0.45093969  0.87815021    -0.13400
F2170       F  0.60708204  0.94521002  0.84895352    -0.15700
F2171       F  0.63791853  0.55386019  0.89383815    -0.15700
F2172       F  0.60590618  0.05198312  0.84081395    -0.13400
C2173       C  0.64202967  0.52241891  0.61988357     0.24600
C2174       C  0.64921327  0.49596737  0.60465110    -0.23500
C2175       C  0.63259164  0.47012138  0.61089381     0.19500
C2176       C  0.61082282  0.47021489  0.63322470     0.24600
C2177       C  0.60513580  0.49617472  0.64988445    -0.23400
C2178       C  0.62033154  0.52249714  0.64224842     0.19500
F2179       F  0.61495684  0.54832343  0.65697486    -0.13400
F2180       F  0.65655295  0.54825758  0.61385949    -0.15700
F2181       F  0.59849235  0.94379717  0.64039906    -0.15700
F2182       F  0.64049786  0.94453987  0.59809682    -0.13400
C2183       C  0.87427820  0.97379443  0.64496933     0.24600
C2184       C  0.88680262  0.50321909  0.65145921    -0.23500
C2185       C  0.87699606  0.52875035  0.63612976     0.19500
C2186       C  0.85437207  0.52672724  0.61474683     0.24600
C2187       C  0.84330193  0.99770536  0.60728152    -0.23400
C2188       C  0.85284658  0.97196886  0.62239383     0.19500
F2189       F  0.84085795  0.94494135  0.61633940    -0.13400
F2190       F  0.88223064  0.94836499  0.65918473    -0.15700
F2191       F  0.84536264  0.55202466  0.60090465    -0.15700
F2192       F  0.88893707  0.55590550  0.64168414    -0.13400
C2193       C  0.52570250  0.61550510  0.85943014     0.24600
C2194       C  0.00000270  0.61463475  0.83966906    -0.23500
C2195       C  0.97524041  0.63355410  0.84378332     0.19500
C2196       C  0.97491328  0.65421038  0.86706699     0.24600
C2197       C  0.50026491  0.65504968  0.88667638    -0.23400
C2198       C  0.52579002  0.63740106  0.88151166     0.19500
F2199       F  0.55097937  0.64083767  0.89799568    -0.13400
F2200       F  0.55073835  0.59884697  0.85583782    -0.15700
F2201       F  0.95104787  0.67272585  0.86966246    -0.15700
F2202       F  0.95170767  0.63287303  0.82467175    -0.13400
C2203       C  0.97273391  0.88326315  0.86187429     0.24600
C2204       C  0.99651386  0.88837947  0.84195736    -0.23500
C2205       C  0.52325841  0.88202443  0.85578183     0.19500
C2206       C  0.52546406  0.85995757  0.87769544     0.24600
C2207       C  0.00053936  0.84292702  0.88525659    -0.23400
C2208       C  0.97470698  0.86070830  0.88320992     0.19500
F2209       F  0.95138730  0.85653990  0.90215210    -0.13400
F2210       F  0.94768914  0.90030259  0.86118778    -0.15700
F2211       F  0.55305588  0.85290862  0.88807888    -0.15700
F2212       F  0.54883211  0.89510989  0.84596846    -0.13400
C2213       C  0.96390881  0.88359303  0.63869547     0.24600
C2214       C  0.48894163  0.89393685  0.65165502    -0.23500
C2215       C  0.51593302  0.88095427  0.64199083     0.19500
C2216       C  0.51600067  0.85963625  0.61938777     0.24600
C2217       C  0.99033440  0.84672046  0.60883535    -0.23400
C2218       C  0.96431611  0.86324696  0.61518401     0.19500
F2219       F  0.93923458  0.86032375  0.59842321    -0.13400
F2220       F  0.93841550  0.89923279  0.64358454    -0.15700
F2221       F  0.54255829  0.84725793  0.61148776    -0.15700
F2222       F  0.54243885  0.88823116  0.65486044    -0.13400
C2223       C  0.52343651  0.62226954  0.63760707     0.24600
C2224       C  0.49867839  0.61589583  0.65601690    -0.23500
C2225       C  0.97264741  0.62041106  0.63764568     0.19500
C2226       C  0.97038907  0.64365281  0.61713437     0.24600
C2227       C  0.49560484  0.66191457  0.61299754    -0.23400
C2228       C  0.52193085  0.64509747  0.61644378     0.19500
F2229       F  0.54614104  0.65032718  0.59891800    -0.13400
F2230       F  0.54901109  0.60612988  0.63948313    -0.15700
F2231       F  0.94425547  0.64705782  0.60216113    -0.15700
F2232       F  0.94858200  0.60240255  0.64179511    -0.13400
loop_ 
_geom_bond_atom_site_label_1 
_geom_bond_atom_site_label_2 
_geom_bond_distance 
_geom_bond_site_symmetry_2 
_ccdc_geom_bond_type 
C1           C38   1.466   1_655  S
C1          C271   1.491       .  S
C1         N1135   1.353       .  A
N2           N19   1.322       .  A
N2         N1140   1.316       .  A
N2          Co39   2.078       .  S
C3           C41   1.461       .  S
C3           N28   1.339       .  A
C3           H48   1.082       .  S
H4           C45   1.081       .  S
C5         C1125   1.463       .  S
C5           N29   1.342       .  A
C5           H34   1.082       .  S
Co6          N24   2.085       .  S
Co6          N14   2.094       .  S
Co6          N46   2.095       .  S
Co6          N22   2.082       .  S
Co6         Cl50   2.445   1_455  S
N7           C45   1.337       .  A
N7          N572   1.318       .  A
N7           Co8   2.077       .  S
Co8          N11   2.087       .  S
Co8          N28   2.083       .  S
Co8          N15   2.079       .  S
Co8        Cl608   2.444   1_455  S
C9          C261   1.478       .  S
C9         C1121   1.461       .  S
C9           N47   1.350   1_655  A
N10          N40   1.324       .  A
N10         N575   1.319       .  A
N10         Co43   2.079       .  S
N11          N47   1.324       .  A
N11        N1145   1.320   1_455  A
N12         C599   1.351   1_545  A
N12          N22   1.322       .  A
H13          C38   1.080       .  S
N14          N35   1.325       .  A
N14         N565   1.318   1_545  A
N15          N20   1.324       .  A
N15        N1149   1.319   1_455  A
C16          C44   1.465       .  S
C16         C251   1.484       .  S
C16        N1136   1.350       .  A
N17          C32   1.336       .  A
N17         N568   1.320   1_545  A
N17         Co39   2.073       .  S
C18        C1137   1.467       .  S
C18          N46   1.343       .  A
C18          H52   1.081       .  S
N19        C1117   1.351       .  A
N20        C1132   1.349   1_455  A
C21         C241   1.480       .  S
C21        C1134   1.462       .  S
C21          N42   1.351       .  A
N22         N586   1.318   1_545  A
N23          C49   1.337       .  A
N23         N583   1.319   1_545  A
N23         Co39   2.072       .  S
N24          C38   1.339       .  A
N24        N1118   1.318   1_455  A
N25          N53   1.328       .  A
N25         N581   1.319       .  A
N25         Co43   2.100       .  S
H26          C49   1.081       .  S
H27          C44   1.081       .  S
N28         N580   1.320       .  A
N29        N1127   1.320       .  A
N29         Co43   2.092       .  S
N30          N42   1.323       .  A
N30        N1162   1.318       .  A
N30         Co39   2.081       .  S
C31         C224   1.485       .  S
C31         C603   1.461       .  S
C31          N35   1.353   1_565  A
C32          C51   1.458       .  S
C32          H36   1.081       .  S
N33          C44   1.340       .  A
N33        N1131   1.319       .  A
N33         Co43   2.081       .  S
C37         C201   1.487       .  S
C37         C607   1.459       .  S
C37          N53   1.356       .  A
Co39      Cl1166   2.444       .  S
N40         C609   1.349       .  A
C41         C211   1.479       .  S
C41         N570   1.351       .  A
Co43      Cl1724   2.455       .  S
C45         C589   1.462       .  S
N46        N1146   1.319   1_455  A
C49         C595   1.458       .  S
Cl50       Co566   2.450   1_645  S
Cl50      Co1155   2.452       .  S
Cl50      Co1717   2.447   1_545  S
C51         C231   1.473       .  S
C51         N598   1.351   1_545  A
C54         C191   1.479       .  S
C54         C370   1.461       .  S
C54          N72   1.350       .  A
N55          N72   1.323       .  A
N55         N356   1.319       .  A
N55         Co92   2.080       .  S
C56          C94   1.463       .  S
C56          N81   1.342       .  A
C56         H101   1.082       .  S
H57          C98   1.078       .  S
C58          C62   1.460       .  S
C58          N82   1.337       .  A
C58          H87   1.081       .  S
Co59         N77   2.076       .  S
Co59         N67   2.089       .  S
Co59         N99   2.085       .  S
Co59         N75   2.083       .  S
Co59       Cl382   2.453   1_454  S
N60          C98   1.338       .  A
N60        N1183   1.317       .  A
N60         Co61   2.078       .  S
Co61         N64   2.089       .  S
Co61         N81   2.091       .  S
Co61         N68   2.078       .  S
Co61      Cl1498   2.449   1_554  S
C62         C171   1.479       .  S
C62         N379   1.352       .  A
N63          N93   1.322       .  A
N63        N1186   1.318       .  A
N63         Co96   2.077       .  S
N64         N100   1.324       .  A
N64         N361   1.319   1_554  A
N65        C1210   1.350   1_455  A
N65          N75   1.324       .  A
H66          C91   1.081       .  S
N67          N88   1.324       .  A
N67        N1176   1.317   1_455  A
N68          N73   1.324       .  A
N68         N365   1.318   1_554  A
C69          C97   1.465       .  S
C69         C161   1.484       .  S
C69         N352   1.350       .  A
N70          C85   1.341       .  A
N70        N1179   1.319   1_455  A
N70         Co92   2.089       .  S
C71         C353   1.467   1_554  S
C71          N99   1.340       .  A
C71         H105   1.080       .  S
N73         C348   1.350   1_554  A
C74         C184   1.487       .  S
C74         C350   1.467       .  S
C74          N95   1.351       .  A
N75        N1197   1.319   1_455  A
N76         C102   1.343       .  A
N76        N1194   1.318   1_455  A
N76         Co92   2.085       .  S
N77          C91   1.339       .  A
N77         N334   1.319   1_554  A
N78         N106   1.323       .  A
N78        N1192   1.319       .  A
N78         Co96   2.079       .  S
H79         C102   1.076       .  S
H80          C97   1.078       .  S
N81        N1191   1.320       .  A
N82         N343   1.319       .  A
N82         Co96   2.074       .  S
N83          N95   1.322       .  A
N83         N378   1.319       .  A
N83         Co92   2.084       .  S
C84         C274   1.493       .  S
C84        C1214   1.467       .  S
C84          N88   1.353   1_655  A
C85         C104   1.465   1_455  S
C85          H89   1.081       .  S
N86          C97   1.340       .  A
N86         N347   1.318       .  A
N86         Co96   2.081       .  S
C90         C254   1.480       .  S
C90        C1218   1.463       .  S
C90         N106   1.350       .  A
C91         C333   1.462       .  S
Co92       Cl103   2.449   1_455  S
N93        C1220   1.349       .  A
C94         C264   1.481       .  S
C94        N1181   1.350       .  A
Co96      Cl1219   2.447       .  S
C98        C1200   1.465       .  S
N99         N362   1.319   1_554  A
N100        C341   1.353   1_554  A
C102       C1206   1.466       .  S
Cl103      Co338   2.451   1_655  S
Cl103     Co1456   2.449       .  S
Cl103     Co1212   2.450       .  S
C104        C244   1.488       .  S
C104       N1209   1.352       .  A
C107        C144   1.467       .  S
C107        C234   1.483       .  S
C107        N683   1.348       .  A
N108        N125   1.320       .  A
N108        N688   1.317   1_545  A
N108       Co145   2.069       .  S
C109        C147   1.468       .  S
C109        N134   1.342       .  A
C109        H154   1.079       .  S
H110        C151   1.081       .  S
C111        C673   1.458       .  S
C111        N135   1.337       .  A
C111        H140   1.079       .  S
Co112       N130   2.091       .  S
Co112       N120   2.077       .  S
Co112       N152   2.072       .  S
Co112       N128   2.085       .  S
Co112      Cl993   2.449   1_554  S
N113        C151   1.338       .  A
N113        N399   1.318       .  A
N113       Co114   2.078       .  S
Co114       N117   2.089       .  S
Co114       N134   2.087       .  S
Co114       N121   2.076       .  S
Co114      Cl714   2.448       .  S
C115        C204   1.486       .  S
C115        C669   1.464       .  S
C115        N153   1.352       .  A
N116        N146   1.321       .  A
N116        N402   1.319       .  A
N116       Co149   2.079       .  S
N117        N153   1.325       .  A
N117        N693   1.319       .  A
N118        C426   1.351   1_554  A
N118        N128   1.323       .  A
H119        C144   1.080       .  S
N120        N141   1.324       .  A
N120        N392   1.319   1_554  A
N121        N126   1.322       .  A
N121        N697   1.318       .  A
C122        C150   1.465       .  S
C122        C214   1.483       .  S
C122        N684   1.350   1_545  A
N123        C138   1.343       .  A
N123        N395   1.317   1_554  A
N123       Co145   2.087       .  S
C124        C685   1.460       .  S
C124        N152   1.336       .  A
C124        H158   1.079       .  S
N125        C665   1.348   1_545  A
N126        C680   1.348       .  A
C127        C221   1.485       .  S
C127        C682   1.466       .  S
C127        N148   1.350   1_565  A
N128        N413   1.318   1_554  A
N129        C155   1.339       .  A
N129        N410   1.317   1_554  A
N129       Co145   2.075       .  S
N130        C144   1.343       .  A
N130        N666   1.319       .  A
N131        N159   1.322       .  A
N131        N408   1.318       .  A
N131       Co149   2.077       .  S
H132        C155   1.079       .  S
H133        C150   1.080       .  S
N134        N407   1.318       .  A
N135        N675   1.318   1_545  A
N135       Co149   2.072       .  S
N136        N148   1.323       .  A
N136        N710   1.319   1_545  A
N136       Co145   2.085       .  S
C137        C151   1.464       .  S
C137        C164   1.485       .  S
C137        N420   1.351       .  A
C138        C436   1.469       .  S
C138        H142   1.073       .  S
N139        C150   1.341       .  A
N139        N679   1.319   1_545  A
N139       Co149   2.084       .  S
N141        C416   1.350   1_554  A
C143        C194   1.478       .  S
C143        C434   1.461       .  S
C143        N159   1.350       .  A
Co145      Cl435   2.448   1_554  S
N146        C157   1.349       .  A
C147        C181   1.484       .  S
C147        N397   1.349       .  A
Co149      Cl156   2.444       .  S
N152        N694   1.318       .  A
C155        C422   1.464       .  S
Cl156      Co949   2.446   1_545  S
Cl156      Co672   2.449   1_545  S
Cl156      Co424   2.450       .  S
C157        C174   1.483       .  S
C157        C417   1.466       .  S
C160        C161   1.407       .  A
C160        C165   1.397       .  A
C160        F167   1.356       .  S
C161        C441   1.409       .  A
C162        C163   1.400       .  A
C162        C440   1.408   1_554  A
C162        F169   1.358       .  S
C163        C443   1.408   1_554  A
C163        F168   1.358       .  S
C164        C165   1.408       .  A
C164        C442   1.409       .  A
C165        F166   1.356       .  S
C170        C175   1.400       .  A
C170        C450   1.410   1_554  A
C170        F177   1.358       .  S
C171        C172   1.406       .  A
C171        C449   1.406       .  A
C172        C173   1.395       .  A
C172        F179   1.357       .  S
C173        C174   1.409       .  A
C173        F178   1.358       .  S
C174        C454   1.409       .  A
C175        C453   1.409       .  A
C175        F176   1.355       .  S
C180        C181   1.409       .  A
C180        C185   1.396       .  A
C180        F466   1.358       .  S
C181        C182   1.407       .  A
C182        C183   1.398       .  A
C182        F189   1.356       .  S
C183        C184   1.411       .  A
C183        F188   1.358       .  S
C184        C185   1.408       .  A
C185        F465   1.355       .  S
F186        C464   1.355       .  S
F187        C459   1.358       .  S
C190        C195   1.399       .  A
C190        C470   1.409       .  A
C190        F197   1.357       .  S
C191        C192   1.408       .  A
C191        C469   1.407       .  A
C192        C193   1.396       .  A
C192        F199   1.358       .  S
C193        C194   1.407       .  A
C193        F198   1.358       .  S
C194        C474   1.407       .  A
C195        C473   1.409       .  A
C195        F196   1.356       .  S
C200        C205   1.394       .  A
C200        C759   1.406       .  A
C200        F207   1.357       .  S
C201        C202   1.407       .  A
C201        C758   1.410       .  A
C202        C203   1.402       .  A
C202        F209   1.358       .  S
C203        C204   1.409       .  A
C203        F208   1.358       .  S
C204        C763   1.407       .  A
C205        C762   1.406       .  A
C205        F206   1.357       .  S
C210        C211   1.406       .  A
C210        C773   1.397       .  A
C210        F217   1.357       .  S
C211        C212   1.406       .  A
C212        C771   1.400       .  A
C212        F219   1.358       .  S
C213        C214   1.407       .  A
C213        C770   1.398       .  A
C213        F218   1.356       .  S
C214        C215   1.408   1_545  A
C215        C768   1.400       .  A
C215        F216   1.358       .  S
C220        C221   1.408   1_545  A
C220        C225   1.397       .  A
C220        F227   1.358       .  S
C221        C222   1.408       .  A
C222        C223   1.403       .  A
C222        F787   1.357       .  S
C223        C224   1.410       .  A
C223        F786   1.357       .  S
C224        C225   1.406   1_565  A
C225        F226   1.358       .  S
F228        C781   1.356       .  S
F229        C780   1.356       .  S
C230        C235   1.400       .  A
C230        C789   1.407       .  A
C230        F237   1.357       .  S
C231        C232   1.406       .  A
C231        C788   1.405   1_545  A
C232        C233   1.393       .  A
C232        F239   1.357       .  S
C233        C792   1.408       .  A
C233        F238   1.358       .  S
C234        C235   1.407       .  A
C234        C791   1.410       .  A
C235        F236   1.357       .  S
C240        C245   1.401       .  A
C240       C1357   1.407   1_455  A
C240        F247   1.357       .  S
C241        C242   1.407       .  A
C241       C1356   1.407       .  A
C242        C243   1.397       .  A
C242        F249   1.358       .  S
C243       C1360   1.408       .  A
C243        F248   1.358       .  S
C244        C245   1.408   1_655  A
C244       C1359   1.409       .  A
C245        F246   1.357       .  S
C250        C251   1.408       .  A
C250        C255   1.398       .  A
C250        F257   1.356       .  S
C251       C1368   1.409       .  A
C252        C253   1.400       .  A
C252       C1367   1.407   1_455  A
C252        F259   1.358       .  S
C253       C1370   1.407   1_455  A
C253        F258   1.357       .  S
C254        C255   1.407       .  A
C254       C1369   1.406       .  A
C255        F256   1.358       .  S
C260        C265   1.401       .  A
C260       C1377   1.407       .  A
C260        F267   1.357       .  S
C261        C262   1.405   1_655  A
C261       C1376   1.407       .  A
C262        C263   1.398       .  A
C262        F269   1.358       .  S
C263       C1380   1.406   1_455  A
C263        F268   1.358       .  S
C264        C265   1.406       .  A
C264       C1379   1.407       .  A
C265        F266   1.357       .  S
C270        C271   1.409   1_455  A
C270        C275   1.399       .  A
C270        F277   1.355       .  S
C271       C1388   1.409       .  A
C272        C273   1.396       .  A
C272       C1387   1.409       .  A
C272        F279   1.358       .  S
C273       C1390   1.408       .  A
C273        F278   1.356       .  S
C274        C275   1.409   1_655  A
C274       C1389   1.411       .  A
C275        F276   1.358       .  S
C280        C317   1.467   1_655  S
C280        C550   1.485       .  S
C280       N1414   1.350       .  A
N281        N298   1.324       .  A
N281       N1419   1.318       .  A
N281       Co318   2.085       .  S
C282        C320   1.458       .  S
C282        N307   1.338       .  A
C282        H327   1.082       .  S
H283        C324   1.081       .  S
C284       C1404   1.463       .  S
C284        N308   1.336       .  A
C284        H313   1.080       .  S
Co285       N303   2.083       .  S
Co285       N293   2.081       .  S
Co285       N325   2.081       .  S
Co285       N301   2.088       .  S
Co285      Cl329   2.450   1_455  S
N286        C324   1.339       .  A
N286        N851   1.319       .  A
N286       Co287   2.077       .  S
Co287       N290   2.080       .  S
Co287       N307   2.077       .  S
Co287       N294   2.083       .  S
Co287      Cl887   2.447   1_455  S
C288       C1400   1.462       .  S
C288        C540   1.479       .  S
C288        N326   1.350   1_655  A
N289        N854   1.319       .  A
N289        N319   1.322       .  A
N289       Co322   2.082       .  S
N290       N1424   1.318   1_455  A
N290        N326   1.324       .  A
N291        C878   1.353   1_545  A
N291        N301   1.324       .  A
H292        C317   1.081       .  S
N293        N844   1.319   1_545  A
N293        N314   1.323       .  A
N294       N1428   1.318   1_455  A
N294        N299   1.323       .  A
C295        C323   1.466       .  S
C295        C530   1.485       .  S
C295       N1415   1.350       .  A
N296        C311   1.341       .  A
N296        N847   1.318   1_545  A
N296       Co318   2.081       .  S
C297       C1416   1.463       .  S
C297        N325   1.339       .  A
C297        H331   1.081       .  S
N298       C1396   1.353       .  A
N299       C1411   1.351   1_455  A
C300       C1413   1.464       .  S
C300        C520   1.484       .  S
C300        N321   1.351       .  A
N301        N865   1.318   1_545  A
N302        C328   1.336       .  A
N302        N862   1.319   1_545  A
N302       Co318   2.074       .  S
N303        C317   1.340       .  A
N303       N1397   1.318   1_455  A
N304        N860   1.319       .  A
N304        N332   1.325       .  A
N304       Co322   2.078       .  S
H305        C328   1.081       .  S
H306        C323   1.081       .  S
N307        N859   1.320       .  A
N308       N1406   1.317       .  A
N308       Co322   2.073       .  S
N309        N321   1.323       .  A
N309       N1441   1.317       .  A
N309       Co318   2.081       .  S
C310        C882   1.464       .  S
C310        C503   1.483       .  S
C310        N314   1.350   1_565  A
C311        C330   1.467       .  S
C311        H315   1.080       .  S
N312        C323   1.342       .  A
N312       N1410   1.319       .  A
N312       Co322   2.087       .  S
C316        C886   1.459       .  S
C316        C480   1.478       .  S
C316        N332   1.351       .  A
Co318     Cl1445   2.448       .  S
N319        C888   1.349       .  A
C320        C490   1.476       .  S
C320        N849   1.351       .  A
Co322     Cl2003   2.452       .  S
C324        C868   1.461       .  S
N325       N1425   1.319   1_455  A
C328        C874   1.459       .  S
Cl329      Co845   2.445   1_645  S
Cl329     Co1434   2.444       .  S
Cl329     Co1996   2.453   1_545  S
C330        C510   1.484       .  S
C330        N877   1.348   1_545  A
C333        C470   1.483       .  S
C333        N351   1.352   1_554  A
N334        N351   1.323       .  A
N334       Co371   2.088       .  S
C335        C373   1.467       .  S
C335        N360   1.339       .  A
C335        H380   1.079       .  S
H336        C377   1.078       .  S
C337        C341   1.468       .  S
C337        N361   1.341       .  A
C337        H366   1.080       .  S
Co338       N356   2.077       .  S
Co338       N346   2.081       .  S
Co338       N378   2.080       .  S
Co338       N354   2.086       .  S
N339        C377   1.338       .  A
N339       N1462   1.318       .  A
N339       Co340   2.077       .  S
Co340       N343   2.087       .  S
Co340       N360   2.082       .  S
Co340       N347   2.081       .  S
Co340     Cl1219   2.449       .  S
C341        C450   1.493       .  S
N342       N1465   1.318       .  A
N342        N372   1.323       .  A
N342       Co375   2.082       .  S
N343        N379   1.325       .  A
N344       C1489   1.351   1_455  A
N344        N354   1.325       .  A
H345        C370   1.081       .  S
N346       N1455   1.319   1_455  A
N346        N367   1.323       .  A
N347        N352   1.324       .  A
C348        C376   1.462       .  S
C348        C440   1.480       .  S
N349        C364   1.339       .  A
N349       N1458   1.318   1_455  A
N349       Co371   2.080       .  S
C350        N378   1.339       .  A
C350        H384   1.079       .  S
C353        C463   1.486       .  S
C353        N374   1.350       .  A
N354       N1476   1.319   1_455  A
N355        C381   1.343       .  A
N355       N1473   1.318   1_455  A
N355       Co371   2.091       .  S
N356        C370   1.338       .  A
N357       N1471   1.319       .  A
N357        N385   1.325       .  A
N357       Co375   2.089       .  S
H358        C381   1.076       .  S
H359        C376   1.079       .  S
N360       N1470   1.318       .  A
N361       Co375   2.087       .  S
N362        N374   1.322       .  A
N362       Co371   2.079       .  S
C363       C1493   1.465       .  S
C363        C553   1.483       .  S
C363        N367   1.350   1_655  A
C364        C383   1.463       .  S
C364        H368   1.081       .  S
N365        C376   1.337       .  A
N365       Co375   2.078       .  S
C369       C1497   1.462       .  S
C369        C533   1.481       .  S
C369        N385   1.351       .  A
Co371      Cl382   2.447   1_455  S
N372       C1499   1.351       .  A
C373        C543   1.489       .  S
C373       N1460   1.352       .  A
Co375     Cl1498   2.447       .  S
C377       C1479   1.465       .  S
C381       C1485   1.470   1_455  S
Cl382     Co1177   2.448   1_556  S
Cl382     Co1491   2.453       .  S
C383        C523   1.480       .  S
C383       N1488   1.350   1_455  A
C386        C423   1.459       .  S
C386        C513   1.479       .  S
C386        N962   1.352       .  A
N387        N404   1.322       .  A
N387        N967   1.318   1_545  A
N387       Co424   2.076       .  S
C388        C426   1.463       .  S
C388        N413   1.339       .  A
C388        H433   1.079       .  S
H389        C430   1.081       .  S
C390        C952   1.461       .  S
C390        N414   1.337       .  A
C390        H419   1.080       .  S
Co391       N409   2.072       .  S
Co391       N399   2.081       .  S
Co391       N431   2.082       .  S
Co391       N407   2.073       .  S
Co391      Cl714   2.448       .  S
N392        C430   1.337       .  A
N392       Co393   2.080       .  S
Co393       N396   2.075       .  S
Co393       N413   2.074       .  S
Co393       N400   2.083       .  S
Co393      Cl993   2.444       .  S
C394        C948   1.462       .  S
C394        C483   1.476       .  S
C394        N432   1.349       .  A
N395        N425   1.324       .  A
N395       Co428   2.084       .  S
N396        N972   1.318       .  A
N396        N432   1.323       .  A
N397        N407   1.321       .  A
H398        C423   1.080       .  S
N399        N420   1.324       .  A
N400        N976   1.318       .  A
N400        N405   1.323       .  A
C401        C429   1.464       .  S
C401        C493   1.490       .  S
C401        N963   1.354   1_545  A
N402        C417   1.343       .  A
N402       Co424   2.088       .  S
C403        C964   1.464       .  S
C403        N431   1.342       .  A
C403        H437   1.080       .  S
N404        C944   1.350   1_545  A
N405        C959   1.350       .  A
C406        C961   1.462       .  S
C406        C500   1.484       .  S
C406        N427   1.352   1_565  A
N408        C434   1.337       .  A
N408       Co424   2.073       .  S
N409        C423   1.337       .  A
N409        N945   1.319       .  A
N410        N438   1.323       .  A
N410       Co428   2.085       .  S
H411        C434   1.081       .  S
H412        C429   1.079       .  S
N414        N954   1.318   1_545  A
N414       Co428   2.075       .  S
N415        N427   1.324       .  A
N415        N989   1.319   1_545  A
N415       Co424   2.089       .  S
C416        C430   1.463       .  S
C416        C443   1.480       .  S
C417        H421   1.082       .  S
N418        C429   1.338       .  A
N418        N958   1.319   1_545  A
N418       Co428   2.080       .  S
C422        C473   1.484       .  S
C422        N438   1.352   1_554  A
N425        C436   1.351   1_556  A
C426        C460   1.482       .  S
Co428      Cl435   2.446       .  S
N431        N973   1.318       .  A
Cl435      Co670   2.448   1_546  S
Cl435      Co951   2.452   1_545  S
C436        C453   1.492       .  S
C439        C440   1.407       .  A
C439        C444   1.394       .  A
C439        F446   1.356       .  S
C441        C442   1.399       .  A
C441        F448   1.358       .  S
C442        F447   1.358       .  S
C443        C444   1.407       .  A
C444        F445   1.356       .  S
C449        C454   1.401       .  A
C449        F456   1.358       .  S
C450        C451   1.410       .  A
C451        C452   1.400       .  A
C451        F458   1.355       .  S
C452        C453   1.410   1_556  A
C452        F457   1.358       .  S
C454        F455   1.356       .  S
C459        C460   1.407   1_554  A
C459        C464   1.397       .  A
C460        C461   1.407       .  A
C461        C462   1.397       .  A
C461        F468   1.356       .  S
C462        C463   1.410       .  A
C462        F467   1.358       .  S
C463        C464   1.409   1_556  A
C469        C474   1.396       .  A
C469        F476   1.356       .  S
C470        C471   1.407   1_554  A
C471        C472   1.397       .  A
C471        F478   1.358       .  S
C472        C473   1.408   1_556  A
C472        F477   1.358       .  S
C474        F475   1.356       .  S
C479       C1038   1.408       .  A
C479        C484   1.394       .  A
C479        F486   1.356       .  S
C480       C1037   1.407       .  A
C480        C481   1.407       .  A
C481        C482   1.400       .  A
C481        F488   1.358       .  S
C482        C483   1.408       .  A
C482        F487   1.358       .  S
C483       C1042   1.405       .  A
C484       C1041   1.407       .  A
C484        F485   1.356       .  S
C489        C490   1.405       .  A
C489       C1052   1.396       .  A
C489        F496   1.357       .  S
C490        C491   1.405       .  A
C491       C1050   1.401       .  A
C491        F498   1.357       .  S
C492       C1049   1.398       .  A
C492        C493   1.410       .  A
C492        F497   1.355       .  S
C493        C494   1.408   1_545  A
C494       C1047   1.401       .  A
C494        F495   1.358       .  S
C499        C500   1.407   1_545  A
C499        C504   1.397       .  A
C499        F506   1.358       .  S
C500        C501   1.409       .  A
C501        C502   1.399       .  A
C501       F1066   1.356       .  S
C502        C503   1.407       .  A
C502       F1065   1.357       .  S
C503        C504   1.408   1_565  A
C504        F505   1.358       .  S
F507       C1060   1.357       .  S
F508       C1059   1.357       .  S
C509       C1068   1.409       .  A
C509        C514   1.396       .  A
C509        F516   1.358       .  S
C510       C1067   1.410   1_545  A
C510        C511   1.408       .  A
C511        C512   1.397       .  A
C511        F518   1.356       .  S
C512       C1071   1.407   1_545  A
C512        F517   1.358       .  S
C513       C1070   1.406       .  A
C513        C514   1.407       .  A
C514        F515   1.357       .  S
C519       C1636   1.406       .  A
C519        C524   1.397       .  A
C519        F526   1.357       .  S
C520       C1635   1.408       .  A
C520        C521   1.408       .  A
C521        C522   1.398       .  A
C521        F528   1.358       .  S
C522       C1639   1.409       .  A
C522        F527   1.358       .  S
C523       C1638   1.408   1_455  A
C523        C524   1.407       .  A
C524        F525   1.357       .  S
C529        C530   1.408       .  A
C529        C534   1.400       .  A
C529        F536   1.356       .  S
C530       C1647   1.410       .  A
C531       C1646   1.411   1_455  A
C531        C532   1.401       .  A
C531        F538   1.358       .  S
C532       C1649   1.409   1_455  A
C532        F537   1.355       .  S
C533       C1648   1.407       .  A
C533        C534   1.406       .  A
C534        F535   1.358       .  S
C539       C1656   1.410       .  A
C539        C544   1.396       .  A
C539        F546   1.355       .  S
C540       C1655   1.406       .  A
C540        C541   1.407   1_655  A
C541        C542   1.399       .  A
C541        F548   1.358       .  S
C542       C1659   1.407   1_455  A
C542        F547   1.358       .  S
C543       C1658   1.410       .  A
C543        C544   1.408       .  A
C544        F545   1.355       .  S
C549        C550   1.408   1_455  A
C549        C554   1.398       .  A
C549        F556   1.356       .  S
C550       C1667   1.410       .  A
C551       C1666   1.408       .  A
C551        C552   1.399       .  A
C551        F558   1.358       .  S
C552       C1669   1.411       .  A
C552        F557   1.355       .  S
C553       C1668   1.407       .  A
C553        C554   1.408   1_655  A
C554        F555   1.358       .  S
C559        C596   1.468       .  S
C559        C829   1.489   1_455  S
C559       N1693   1.350   1_455  A
N560        N577   1.320       .  A
N560       N1698   1.318       .  A
N560       Co597   2.075       .  S
C561        C599   1.466       .  S
C561        N586   1.341       .  A
C561        H606   1.081       .  S
H562        C603   1.081       .  S
C563       C1683   1.466       .  S
C563        N587   1.341       .  A
C563        H592   1.080       .  S
Co564       N582   2.092       .  S
Co564       N572   2.079       .  S
Co564       N604   2.083       .  S
Co564       N580   2.088       .  S
Co564      Cl608   2.455   1_455  S
N565        C603   1.340       .  A
N565       Co566   2.076       .  S
Co566       N569   2.079       .  S
Co566       N586   2.084       .  S
Co566       N573   2.077       .  S
C567       C1679   1.465       .  S
C567        C819   1.480       .  S
C567        N605   1.348   1_655  A
N568        N598   1.324       .  A
N568       Co601   2.084       .  S
N569       N1703   1.319   1_455  A
N569        N605   1.322       .  A
N570        N580   1.324       .  A
H571        C596   1.082       .  S
N572        N593   1.323       .  A
N573       N1707   1.317   1_455  A
N573        N578   1.321       .  A
C574        C602   1.467       .  S
C574        C809   1.488       .  S
C574       N1694   1.351       .  A
N575        C590   1.341       .  A
N575       Co597   2.087       .  S
C576       C1695   1.467       .  S
C576        N604   1.340       .  A
C576        H610   1.080       .  S
N577       C1675   1.349       .  A
N578       C1690   1.351   1_455  A
C579       C1692   1.465       .  S
C579        C799   1.488       .  S
C579        N600   1.352       .  A
N581        C607   1.335       .  A
N581       Co597   2.072       .  S
N582        C596   1.344       .  A
N582       N1676   1.318   1_455  A
N583        N611   1.324       .  A
N583       Co601   2.082       .  S
H584        C607   1.080       .  S
H585        C602   1.079       .  S
N587       N1685   1.318       .  A
N587       Co601   2.085       .  S
N588        N600   1.325       .  A
N588       N1720   1.318       .  A
N588       Co597   2.088       .  S
C589        C782   1.480       .  S
C589        N593   1.351       .  A
C590        C609   1.463       .  S
C590        H594   1.082       .  S
N591        C602   1.341       .  A
N591       N1689   1.318       .  A
N591       Co601   2.082       .  S
C595        C759   1.472       .  S
C595        N611   1.350   1_545  A
Co597     Cl1724   2.442       .  S
C599        C769   1.487       .  S
Co601     Cl1166   2.451   1_565  S
N604       N1704   1.317   1_455  A
Cl608     Co1713   2.442       .  S
Cl608     Co1159   2.456       .  S
C609        C789   1.479       .  S
C612        C928   1.464       .  S
C612        C749   1.482       .  S
C612        N630   1.350       .  A
N613        N630   1.322       .  A
N613        N914   1.319       .  A
N613       Co650   2.082       .  S
C614        C652   1.461       .  S
C614        N639   1.336       .  A
C614        H659   1.082       .  S
H615        C656   1.080       .  S
C616        C620   1.466       .  S
C616        N640   1.341       .  A
C616        H645   1.080       .  S
Co617       N635   2.073       .  S
Co617       N625   2.090       .  S
Co617       N657   2.086       .  S
Co617       N633   2.084       .  S
Co617      Cl940   2.448   1_454  S
N618        C656   1.339       .  A
N618       N1741   1.318       .  A
N618       Co619   2.079       .  S
Co619       N622   2.085       .  S
Co619       N639   2.078       .  S
Co619       N626   2.082       .  S
Co619     Cl2056   2.444   1_554  S
C620        C729   1.482       .  S
C620        N937   1.349       .  A
N621       N1744   1.319       .  A
N621        N651   1.324       .  A
N621       Co654   2.084       .  S
N622        N919   1.318   1_554  A
N622        N658   1.322       .  A
N623       C1768   1.352   1_455  A
N623        N633   1.325       .  A
H624        C649   1.080       .  S
N625       N1734   1.319   1_455  A
N625        N646   1.326       .  A
N626        N923   1.319   1_554  A
N626        N631   1.325       .  A
C627        C655   1.462       .  S
C627        C719   1.476       .  S
C627        N910   1.348       .  A
N628        C643   1.338       .  A
N628       N1737   1.318   1_455  A
N628       Co650   2.083       .  S
C629        C911   1.466   1_554  S
C629        N657   1.340       .  A
C629        H663   1.081       .  S
N631        C906   1.351   1_554  A
C632        C908   1.464       .  S
C632        C742   1.484       .  S
C632        N653   1.351       .  A
N633       N1755   1.319   1_455  A
N634        C660   1.339       .  A
N634       N1752   1.317   1_455  A
N634       Co650   2.076       .  S
N635        C649   1.335       .  A
N635        N892   1.318   1_554  A
N636       N1750   1.317       .  A
N636        N664   1.325       .  A
N636       Co654   2.085       .  S
H637        C660   1.074       .  S
H638        C655   1.079       .  S
N639       N1749   1.319       .  A
N640        N901   1.319       .  A
N640       Co654   2.086       .  S
N641        N653   1.323       .  A
N641        N936   1.318       .  A
N641       Co650   2.082       .  S
C642       C1772   1.465       .  S
C642        C832   1.486       .  S
C642        N646   1.351   1_655  A
C643        C662   1.465       .  S
C643        H647   1.081       .  S
N644        C655   1.342       .  A
N644        N905   1.319       .  A
N644       Co654   2.082       .  S
C648       C1776   1.464       .  S
C648        C812   1.486       .  S
C648        N664   1.352       .  A
C649        C891   1.463       .  S
Co650      Cl661   2.443   1_455  S
N651       C1778   1.351       .  A
C652        C822   1.485       .  S
C652       N1739   1.354       .  A
Co654     Cl1777   2.453       .  S
C656       C1758   1.463       .  S
N657        N920   1.319   1_554  A
N658        C899   1.352   1_554  A
C660       C1764   1.466       .  S
Cl661      Co896   2.449   1_655  S
Cl661     Co2014   2.443       .  S
Cl661     Co1770   2.452       .  S
C662        C802   1.488       .  S
C662       N1767   1.353   1_455  A
C665        C702   1.463       .  S
C665        C792   1.476   1_565  S
N666        N683   1.322       .  A
N666       Co703   2.076       .  S
C667        C705   1.460       .  S
C667        N692   1.338       .  A
C667        H712   1.080       .  S
H668        C709   1.082       .  S
C669        N693   1.339       .  A
C669        H698   1.079       .  S
Co670       N688   2.077       .  S
Co670       N678   2.081       .  S
Co670       N710   2.088       .  S
Co670       N686   2.081       .  S
N671        C709   1.342       .  A
N671        N957   1.319       .  A
N671       Co672   2.086       .  S
Co672       N675   2.076       .  S
Co672       N692   2.074       .  S
Co672       N679   2.085       .  S
C673        C762   1.472       .  S
C673        N711   1.350   1_545  A
N674        N960   1.319       .  A
N674        N704   1.323       .  A
N674       Co707   2.083       .  S
N675        N711   1.323       .  A
N676        C984   1.350   1_554  A
N676        N686   1.323       .  A
H677        C702   1.080       .  S
N678        N950   1.319   1_554  A
N678        N699   1.323       .  A
N679        N684   1.323       .  A
C680        C708   1.467       .  S
C680        C772   1.483       .  S
N681        C696   1.340       .  A
N681        N953   1.318   1_554  A
N681       Co703   2.085       .  S
C682        N710   1.344       .  A
C682        H716   1.079       .  S
C685        C779   1.481       .  S
C685        N706   1.353       .  A
N686        N971   1.319   1_554  A
N687        C713   1.336       .  A
N687        N968   1.317   1_554  A
N687       Co703   2.074       .  S
N688        C702   1.340       .  A
N689        N966   1.319       .  A
N689        N717   1.324       .  A
N689       Co707   2.088       .  S
H690        C713   1.079       .  S
H691        C708   1.081       .  S
N692        N965   1.318       .  A
N693       Co707   2.084       .  S
N694        N706   1.325       .  A
N694       Co703   2.087       .  S
C695        C709   1.464       .  S
C695        C722   1.477       .  S
C695        N978   1.348       .  A
C696        C994   1.466       .  S
C696        H700   1.078       .  S
N697        C708   1.342       .  A
N697       Co707   2.087       .  S
N699        C974   1.349   1_554  A
C701        C992   1.463       .  S
C701        C752   1.485       .  S
C701        N717   1.352       .  A
Co703      Cl993   2.445   1_554  S
N704        C715   1.349       .  A
C705        C739   1.479       .  S
C705        N955   1.351       .  A
Co707      Cl714   2.447       .  S
C713        C980   1.465       .  S
Cl714      Co982   2.449       .  S
C715        C975   1.462       .  S
C715        C732   1.478       .  S
C718        C719   1.407       .  A
C718        C723   1.399       .  A
C718        F725   1.357       .  S
C719        C999   1.406       .  A
C720        C998   1.407   1_554  A
C720        C721   1.399       .  A
C720        F727   1.358       .  S
C721       C1001   1.410   1_554  A
C721        F726   1.358       .  S
C722       C1000   1.408       .  A
C722        C723   1.406       .  A
C723        F724   1.357       .  S
C728       C1008   1.409   1_554  A
C728        C733   1.396       .  A
C728        F735   1.358       .  S
C729       C1007   1.410       .  A
C729        C730   1.407       .  A
C730        C731   1.398       .  A
C730        F737   1.356       .  S
C731        C732   1.407       .  A
C731        F736   1.358       .  S
C732       C1012   1.406       .  A
C733       C1011   1.407       .  A
C733        F734   1.356       .  S
C738        C739   1.405       .  A
C738        C743   1.398       .  A
C738       F1024   1.358       .  S
C739        C740   1.407       .  A
C740        C741   1.397       .  A
C740        F747   1.357       .  S
C741        C742   1.409       .  A
C741        F746   1.358       .  S
C742        C743   1.409       .  A
C743       F1023   1.356       .  S
F744       C1022   1.356       .  S
F745       C1017   1.358       .  S
C748       C1028   1.408       .  A
C748        C753   1.393       .  A
C748        F755   1.355       .  S
C749       C1027   1.408       .  A
C749        C750   1.407       .  A
C750        C751   1.396       .  A
C750        F757   1.358       .  S
C751        C752   1.407       .  A
C751        F756   1.358       .  S
C752       C1032   1.410       .  A
C753       C1031   1.408       .  A
C753        F754   1.355       .  S
C758        C763   1.396       .  A
C758        F765   1.356       .  S
C759        C760   1.405   1_545  A
C760        C761   1.397       .  A
C760        F767   1.358       .  S
C761        C762   1.405   1_565  A
C761        F766   1.358       .  S
C763        F764   1.356       .  S
C768        C769   1.409       .  A
C768        F775   1.356       .  S
C769        C770   1.410   1_565  A
C770        F777   1.358       .  S
C771        C772   1.408       .  A
C771        F776   1.356       .  S
C772        C773   1.410       .  A
C773        F774   1.358       .  S
C778        C779   1.407       .  A
C778        C783   1.399       .  A
C778        F785   1.358       .  S
C779        C780   1.408       .  A
C780        C781   1.394       .  A
C781        C782   1.407       .  A
C782        C783   1.408       .  A
C783        F784   1.358       .  S
C788        C793   1.397       .  A
C788        F795   1.358       .  S
C789        C790   1.405       .  A
C790        C791   1.397       .  A
C790        F797   1.357       .  S
C791        F796   1.358       .  S
C792        C793   1.407   1_545  A
C793        F794   1.357       .  S
C798       C1915   1.408       .  A
C798        C803   1.397       .  A
C798        F805   1.355       .  S
C799       C1914   1.409       .  A
C799        C800   1.409       .  A
C800        C801   1.400       .  A
C800        F807   1.358       .  S
C801       C1918   1.409       .  A
C801        F806   1.358       .  S
C802       C1917   1.410   1_455  A
C802        C803   1.408       .  A
C803        F804   1.356       .  S
C808        C809   1.410       .  A
C808        C813   1.401       .  A
C808        F815   1.356       .  S
C809       C1926   1.409       .  A
C810       C1925   1.409   1_455  A
C810        C811   1.396       .  A
C810        F817   1.358       .  S
C811       C1928   1.408   1_455  A
C811        F816   1.355       .  S
C812       C1927   1.408       .  A
C812        C813   1.408       .  A
C813        F814   1.358       .  S
C818       C1935   1.406       .  A
C818        C823   1.397       .  A
C818        F825   1.356       .  S
C819       C1934   1.406       .  A
C819        C820   1.409   1_655  A
C820        C821   1.398       .  A
C820        F827   1.358       .  S
C821       C1938   1.407   1_455  A
C821        F826   1.358       .  S
C822       C1937   1.408       .  A
C822        C823   1.409       .  A
C823        F824   1.356       .  S
C828        C829   1.409   1_455  A
C828        C833   1.403       .  A
C828        F835   1.357       .  S
C829       C1946   1.410       .  A
C830       C1945   1.408       .  A
C830        C831   1.393       .  A
C830        F837   1.358       .  S
C831       C1948   1.404       .  A
C831        F836   1.357       .  S
C832       C1947   1.406       .  A
C832        C833   1.409   1_655  A
C833        F834   1.358       .  S
C838        C875   1.466       .  S
C838       C1108   1.480   1_455  S
C838       N1972   1.348   1_455  A
N839        N856   1.324       .  A
N839       N1977   1.318       .  A
N839       Co876   2.086       .  S
C840        C878   1.466       .  S
C840        N865   1.340       .  A
C840        H885   1.081       .  S
H841        C882   1.081       .  S
C842       C1962   1.464       .  S
C842        N866   1.340       .  A
C842        H871   1.080       .  S
Co843       N861   2.086       .  S
Co843       N851   2.082       .  S
Co843       N883   2.081       .  S
Co843       N859   2.087       .  S
Co843      Cl887   2.450   1_455  S
N844        C882   1.340       .  A
N844       Co845   2.082       .  S
Co845       N848   2.082       .  S
Co845       N865   2.081       .  S
Co845       N852   2.080       .  S
C846       C1958   1.462       .  S
C846       C1098   1.481       .  S
C846        N884   1.351   1_655  A
N847        N877   1.321       .  A
N847       Co880   2.077       .  S
N848       N1982   1.318   1_455  A
N848        N884   1.323       .  A
N849        N859   1.326       .  A
H850        C875   1.081       .  S
N851        N872   1.322       .  A
N852       N1986   1.319   1_455  A
N852        N857   1.322       .  A
C853        C881   1.469       .  S
C853       C1088   1.492       .  S
C853       N1973   1.352       .  A
N854        C869   1.341       .  A
N854       Co876   2.084       .  S
C855       C1974   1.463       .  S
C855        N883   1.340       .  A
C855        H889   1.080       .  S
N856       C1954   1.352       .  A
N857       C1969   1.349   1_455  A
C858       C1971   1.465       .  S
C858       C1078   1.487       .  S
C858        N879   1.352       .  A
N860        C886   1.335       .  A
N860       Co876   2.076       .  S
N861        C875   1.341       .  A
N861       N1955   1.318   1_455  A
N862        N890   1.324       .  A
N862       Co880   2.083       .  S
H863        C886   1.081       .  S
H864        C881   1.080       .  S
N866       N1964   1.318       .  A
N866       Co880   2.081       .  S
N867        N879   1.325       .  A
N867       N1999   1.319       .  A
N867       Co876   2.087       .  S
C868       C1061   1.478       .  S
C868        N872   1.350       .  A
C869        C888   1.465       .  S
C869        H873   1.081       .  S
N870        C881   1.341       .  A
N870       N1968   1.317       .  A
N870       Co880   2.086       .  S
C874       C1038   1.478       .  S
C874        N890   1.352   1_545  A
Co876     Cl2003   2.446       .  S
C878       C1048   1.491       .  S
Co880     Cl1445   2.449   1_565  S
N883       N1983   1.319   1_455  A
Cl887     Co1992   2.448       .  S
Cl887     Co1438   2.449       .  S
C888       C1068   1.483       .  S
C891       C1028   1.484       .  S
C891        N909   1.352   1_554  A
N892        N909   1.324       .  A
N892       Co929   2.081       .  S
C893        C931   1.464       .  S
C893        N918   1.339       .  A
C893        H938   1.079       .  S
H894        C935   1.080       .  S
C895        C899   1.466       .  S
C895        N919   1.341       .  A
C895        H924   1.080       .  S
Co896       N914   2.084       .  S
Co896       N904   2.078       .  S
Co896       N936   2.078       .  S
Co896       N912   2.085       .  S
N897        C935   1.339       .  A
N897       N2020   1.319       .  A
N897       Co898   2.083       .  S
Co898       N901   2.075       .  S
Co898       N918   2.074       .  S
Co898       N905   2.077       .  S
Co898     Cl1777   2.445       .  S
C899       C1008   1.487       .  S
N900       N2023   1.317       .  A
N900        N930   1.325       .  A
N900       Co933   2.087       .  S
N901        N937   1.322       .  A
N902       C2047   1.352   1_455  A
N902        N912   1.323       .  A
H903        C928   1.081       .  S
N904       N2013   1.318   1_455  A
N904        N925   1.321       .  A
N905        N910   1.322       .  A
C906        C934   1.463       .  S
C906        C998   1.483       .  S
N907        C922   1.339       .  A
N907       N2016   1.318   1_455  A
N907       Co929   2.079       .  S
C908        N936   1.339       .  A
C908        H942   1.081       .  S
C911       C1021   1.484       .  S
C911        N932   1.350       .  A
N912       N2034   1.318   1_455  A
N913        C939   1.341       .  A
N913       N2031   1.318   1_455  A
N913       Co929   2.085       .  S
N914        C928   1.342       .  A
N915       N2029   1.317       .  A
N915        N943   1.323       .  A
N915       Co933   2.087       .  S
H916        C939   1.077       .  S
H917        C934   1.079       .  S
N918       N2028   1.316       .  A
N919       Co933   2.082       .  S
N920        N932   1.323       .  A
N920       Co929   2.079       .  S
C921       C2051   1.464       .  S
C921       C1111   1.481       .  S
C921        N925   1.349   1_655  A
C922        C941   1.462       .  S
C922        H926   1.081       .  S
N923        C934   1.340       .  A
N923       Co933   2.084       .  S
C927       C2055   1.469       .  S
C927       C1091   1.491       .  S
C927        N943   1.352       .  A
Co929      Cl940   2.450   1_455  S
N930       C2057   1.353       .  A
C931       C1101   1.486       .  S
C931       N2018   1.352       .  A
Co933     Cl2056   2.450       .  S
C935       C2037   1.463       .  S
C939       C2043   1.464       .  S
Cl940     Co1735   2.449   1_556  S
Cl940     Co2049   2.446       .  S
C941       C1081   1.480   1_455  S
C941       N2046   1.350   1_455  A
C944        C981   1.464       .  S
C944       C1071   1.480       .  S
N945        N962   1.324       .  A
N945       Co982   2.088       .  S
C946        C984   1.463       .  S
C946        N971   1.341       .  A
C946        H991   1.080       .  S
H947        C988   1.081       .  S
C948        N972   1.338       .  A
C948        H977   1.081       .  S
Co949       N967   2.080       .  S
Co949       N957   2.074       .  S
Co949       N989   2.078       .  S
Co949       N965   2.084       .  S
N950        C988   1.343       .  A
N950       Co951   2.094       .  S
Co951       N954   2.079       .  S
Co951       N971   2.083       .  S
Co951       N958   2.095       .  S
C952       C1041   1.477       .  S
C952        N990   1.350   1_545  A
N953        N983   1.324       .  A
N953       Co986   2.082       .  S
N954        N990   1.323       .  A
N955        N965   1.324       .  A
H956        C981   1.080       .  S
N957        N978   1.321       .  A
N958        N963   1.325       .  A
C959        C987   1.462       .  S
C959       C1051   1.480       .  S
N960        C975   1.340       .  A
N960       Co982   2.077       .  S
C961        N989   1.339       .  A
C961        H995   1.080       .  S
C964       C1058   1.479       .  S
C964        N985   1.348       .  A
N966        C992   1.341       .  A
N966       Co982   2.083       .  S
N967        C981   1.340       .  A
N968        N996   1.323       .  A
N968       Co986   2.079       .  S
H969        C992   1.081       .  S
H970        C987   1.080       .  S
N972       Co986   2.079       .  S
N973        N985   1.321       .  A
N973       Co982   2.074       .  S
C974        C988   1.467       .  S
C974       C1001   1.486       .  S
C975        H979   1.082       .  S
N976        C987   1.342       .  A
N976       Co986   2.081       .  S
C980       C1031   1.484       .  S
C980        N996   1.352   1_554  A
N983        C994   1.351   1_556  A
C984       C1018   1.480       .  S
Co986      Cl993   2.451       .  S
C994       C1011   1.485       .  S
C997        C998   1.408       .  A
C997       C1002   1.400       .  A
C997       F1004   1.357       .  S
C999       C1000   1.394       .  A
C999       F1006   1.358       .  S
C1000      F1005   1.358       .  S
C1001      C1002   1.407       .  A
C1002      F1003   1.357       .  S
C1007      C1012   1.397       .  A
C1007      F1014   1.358       .  S
C1008      C1009   1.410       .  A
C1009      C1010   1.401       .  A
C1009      F1016   1.356       .  S
C1010      C1011   1.409   1_556  A
C1010      F1015   1.358       .  S
C1012      F1013   1.357       .  S
C1017      C1018   1.406   1_554  A
C1017      C1022   1.397       .  A
C1018      C1019   1.406       .  A
C1019      C1020   1.399       .  A
C1019      F1026   1.357       .  S
C1020      C1021   1.410       .  A
C1020      F1025   1.358       .  S
C1021      C1022   1.407   1_556  A
C1027      C1032   1.402       .  A
C1027      F1034   1.357       .  S
C1028      C1029   1.409   1_554  A
C1029      C1030   1.399       .  A
C1029      F1036   1.358       .  S
C1030      C1031   1.409   1_556  A
C1030      F1035   1.358       .  S
C1032      F1033   1.357       .  S
C1037      C1042   1.393       .  A
C1037      F1044   1.356       .  S
C1038      C1039   1.406   1_545  A
C1039      C1040   1.398       .  A
C1039      F1046   1.358       .  S
C1040      C1041   1.407   1_565  A
C1040      F1045   1.358       .  S
C1042      F1043   1.357       .  S
C1047      C1048   1.411       .  A
C1047      F1054   1.355       .  S
C1048      C1049   1.409   1_565  A
C1049      F1056   1.358       .  S
C1050      C1051   1.408       .  A
C1050      F1055   1.357       .  S
C1051      C1052   1.407       .  A
C1052      F1053   1.358       .  S
C1057      C1058   1.408       .  A
C1057      C1062   1.394       .  A
C1057      F1064   1.358       .  S
C1058      C1059   1.407       .  A
C1059      C1060   1.399       .  A
C1060      C1061   1.408       .  A
C1061      C1062   1.406       .  A
C1062      F1063   1.358       .  S
C1067      C1072   1.397       .  A
C1067      F1074   1.358       .  S
C1068      C1069   1.408       .  A
C1069      C1070   1.399       .  A
C1069      F1076   1.356       .  S
C1070      F1075   1.358       .  S
C1071      C1072   1.407       .  A
C1072      F1073   1.356       .  S
C1077      C2194   1.407       .  A
C1077      C1082   1.397       .  A
C1077      F1084   1.356       .  S
C1078      C2193   1.408       .  A
C1078      C1079   1.409       .  A
C1079      C1080   1.401       .  A
C1079      F1086   1.358       .  S
C1080      C2197   1.409       .  A
C1080      F1085   1.358       .  S
C1081      C2196   1.408       .  A
C1081      C1082   1.406   1_655  A
C1082      F1083   1.357       .  S
C1087      C1088   1.408       .  A
C1087      C1092   1.398       .  A
C1087      F1094   1.355       .  S
C1088      C2205   1.411       .  A
C1089      C2204   1.410   1_455  A
C1089      C1090   1.397       .  A
C1089      F1096   1.358       .  S
C1090      C2207   1.405       .  A
C1090      F1095   1.357       .  S
C1091      C2206   1.410       .  A
C1091      C1092   1.410       .  A
C1092      F1093   1.358       .  S
C1097      C2214   1.410       .  A
C1097      C1102   1.399       .  A
C1097      F1104   1.356       .  S
C1098      C2213   1.408       .  A
C1098      C1099   1.407   1_655  A
C1099      C1100   1.396       .  A
C1099      F1106   1.358       .  S
C1100      C2217   1.408   1_455  A
C1100      F1105   1.358       .  S
C1101      C2216   1.408       .  A
C1101      C1102   1.410       .  A
C1102      F1103   1.356       .  S
C1107      C1108   1.406   1_455  A
C1107      C1112   1.396       .  A
C1107      F1114   1.356       .  S
C1108      C2225   1.408       .  A
C1109      C2224   1.409       .  A
C1109      C1110   1.398       .  A
C1109      F1116   1.358       .  S
C1110      C2227   1.407       .  A
C1110      F1115   1.357       .  S
C1111      C2226   1.408       .  A
C1111      C1112   1.409   1_655  A
C1112      F1113   1.358       .  S
C1117      C1154   1.466       .  S
C1117      C1387   1.486       .  S
N1118      N1135   1.325       .  A
N1118     Co1155   2.088       .  S
C1119      C1157   1.463       .  S
C1119      N1144   1.340       .  A
C1119      H1164   1.082       .  S
H1120      C1161   1.080       .  S
C1121      N1145   1.343       .  A
C1121      H1150   1.082       .  S
Co1122     N1140   2.076       .  S
Co1122     N1130   2.078       .  S
Co1122     N1162   2.077       .  S
Co1122     N1138   2.079       .  S
Co1122    Cl1166   2.449       .  S
N1123      C1161   1.338       .  A
N1123      N1688   1.318       .  A
N1123     Co1124   2.083       .  S
Co1124     N1127   2.084       .  S
Co1124     N1144   2.084       .  S
Co1124     N1131   2.080       .  S
Co1124    Cl1724   2.443       .  S
C1125      C1377   1.481       .  S
C1125      N1163   1.350       .  A
N1126      N1691   1.318       .  A
N1126      N1156   1.324       .  A
N1126     Co1159   2.079       .  S
N1127      N1163   1.324       .  A
N1128      C1715   1.350   1_545  A
N1128      N1138   1.324       .  A
H1129      C1154   1.080       .  S
N1130      N1681   1.319   1_545  A
N1130      N1151   1.322       .  A
N1131      N1136   1.322       .  A
C1132      C1160   1.464       .  S
C1132      C1367   1.480       .  S
N1133      C1148   1.338       .  A
N1133      N1684   1.318   1_545  A
N1133     Co1155   2.074       .  S
C1134      N1162   1.338       .  A
C1134      H1168   1.081       .  S
C1137      C1357   1.487   1_455  S
C1137      N1158   1.350   1_455  A
N1138      N1702   1.318   1_545  A
N1139      C1165   1.339       .  A
N1139      N1699   1.319   1_545  A
N1139     Co1155   2.081       .  S
N1140      C1154   1.339       .  A
N1141      N1697   1.320       .  A
N1141      N1169   1.326       .  A
N1141     Co1159   2.094       .  S
H1142      C1165   1.081       .  S
H1143      C1160   1.080       .  S
N1144      N1696   1.318       .  A
N1145     Co1159   2.090       .  S
N1146      N1158   1.325       .  A
N1146     Co1155   2.080       .  S
C1147      C1719   1.466       .  S
C1147      C1340   1.484       .  S
C1147      N1151   1.350   1_565  A
C1148      C1167   1.462       .  S
C1148      H1152   1.081       .  S
N1149      C1160   1.341       .  A
N1149     Co1159   2.086       .  S
C1153      C1723   1.458       .  S
C1153      C1317   1.480       .  S
C1153      N1169   1.354       .  A
N1156      C1725   1.350       .  A
C1157      C1327   1.476       .  S
C1157      N1686   1.348       .  A
C1161      C1705   1.466       .  S
C1165      C1711   1.462       .  S
Cl1166    Co1682   2.445   1_545  S
C1167      C1347   1.478       .  S
C1167      N1714   1.350   1_545  A
C1170      C1486   1.462       .  S
C1170      C1307   1.480       .  S
C1170      N1188   1.350       .  A
N1171      N1188   1.323       .  A
N1171      N1472   1.319       .  A
N1171     Co1208   2.083       .  S
C1172      C1210   1.462       .  S
C1172      N1197   1.343       .  A
C1172      H1217   1.081       .  S
H1173      C1214   1.078       .  S
C1174      C1178   1.461       .  S
C1174      N1198   1.338       .  A
C1174      H1203   1.080       .  S
Co1175     N1193   2.077       .  S
Co1175     N1183   2.080       .  S
Co1175     N1215   2.077       .  S
Co1175     N1191   2.082       .  S
Co1175    Cl1498   2.449   1_554  S
N1176      C1214   1.341       .  A
N1176     Co1177   2.084       .  S
Co1177     N1180   2.087       .  S
Co1177     N1197   2.090       .  S
Co1177     N1184   2.078       .  S
C1178      C1287   1.480       .  S
C1178      N1495   1.351       .  A
N1179      N1209   1.326       .  A
N1179     Co1212   2.088       .  S
N1180      N1477   1.319   1_554  A
N1180      N1216   1.323       .  A
N1181      N1191   1.324       .  A
H1182      C1207   1.081       .  S
N1183      N1204   1.323       .  A
N1184      N1481   1.319   1_554  A
N1184      N1189   1.322       .  A
C1185      C1213   1.465       .  S
C1185      C1277   1.486       .  S
C1185      N1468   1.352       .  A
N1186      C1201   1.339       .  A
N1186     Co1208   2.078       .  S
C1187      C1469   1.463       .  S
C1187      N1215   1.339       .  A
C1187      H1221   1.080       .  S
N1189      C1464   1.349   1_554  A
C1190      C1466   1.467       .  S
C1190      C1300   1.485       .  S
C1190      N1211   1.349       .  A
N1192      C1218   1.340       .  A
N1192     Co1208   2.082       .  S
N1193      C1207   1.336       .  A
N1193      N1450   1.319   1_554  A
N1194      N1222   1.322       .  A
N1194     Co1212   2.076       .  S
H1195      C1218   1.078       .  S
H1196      C1213   1.078       .  S
N1198      N1459   1.318       .  A
N1198     Co1212   2.071       .  S
N1199      N1211   1.322       .  A
N1199      N1494   1.318       .  A
N1199     Co1208   2.076       .  S
C1200      C1390   1.485       .  S
C1200      N1204   1.351       .  A
C1201      C1220   1.463       .  S
C1201      H1205   1.082       .  S
N1202      C1213   1.338       .  A
N1202      N1463   1.318       .  A
N1202     Co1212   2.082       .  S
C1206      C1370   1.482   1_455  S
C1206      N1222   1.349   1_455  A
C1207      C1449   1.461       .  S
Co1208    Cl1219   2.447       .  S
C1210      C1380   1.479       .  S
N1215      N1478   1.318   1_554  A
N1216      C1457   1.351   1_554  A
Cl1219    Co1454   2.451       .  S
C1220      C1360   1.479       .  S
C1223      C1260   1.463       .  S
C1223      C1350   1.483       .  S
C1223      N1799   1.351       .  A
N1224      N1241   1.320       .  A
N1224      N1804   1.317   1_545  A
N1224     Co1261   2.069       .  S
C1225      C1263   1.466       .  S
C1225      N1250   1.342       .  A
C1225      H1270   1.080       .  S
H1226      C1267   1.080       .  S
C1227      C1789   1.462       .  S
C1227      N1251   1.339       .  A
C1227      H1256   1.080       .  S
Co1228     N1246   2.072       .  S
Co1228     N1236   2.082       .  S
Co1228     N1268   2.089       .  S
Co1228     N1244   2.069       .  S
Co1228    Cl2109   2.442   1_554  S
N1229      C1267   1.338       .  A
N1229      N1515   1.318       .  A
N1229     Co1230   2.080       .  S
Co1230     N1233   2.081       .  S
Co1230     N1250   2.084       .  S
Co1230     N1237   2.077       .  S
Co1230    Cl1830   2.446       .  S
C1231      C1785   1.461       .  S
C1231      C1320   1.478       .  S
C1231      N1269   1.350       .  A
N1232      N1518   1.319       .  A
N1232      N1262   1.324       .  A
N1232     Co1265   2.083       .  S
N1233      N1809   1.318       .  A
N1233      N1269   1.324       .  A
N1234      C1542   1.347   1_554  A
N1234      N1244   1.321       .  A
H1235      C1260   1.079       .  S
N1236      N1508   1.320   1_554  A
N1236      N1257   1.322       .  A
N1237      N1813   1.319       .  A
N1237      N1242   1.320       .  A
C1238      C1266   1.467       .  S
C1238      C1330   1.483       .  S
C1238      N1800   1.348   1_545  A
N1239      C1254   1.341       .  A
N1239      N1511   1.319   1_554  A
N1239     Co1261   2.087       .  S
C1240      C1801   1.469       .  S
C1240      N1268   1.339       .  A
C1240      H1274   1.078       .  S
N1241      C1781   1.348   1_545  A
N1242      C1796   1.348       .  A
C1243      C1798   1.464       .  S
C1243      C1337   1.486       .  S
C1243      N1264   1.352   1_565  A
N1244      N1529   1.318   1_554  A
N1245      C1271   1.335       .  A
N1245      N1526   1.317   1_554  A
N1245     Co1261   2.066       .  S
N1246      C1260   1.340       .  A
N1246      N1782   1.316       .  A
N1247      N1524   1.320       .  A
N1247      N1275   1.324       .  A
N1247     Co1265   2.081       .  S
H1248      C1271   1.080       .  S
H1249      C1266   1.081       .  S
N1250      N1523   1.318       .  A
N1251      N1791   1.318   1_545  A
N1251     Co1265   2.077       .  S
N1252      N1264   1.324       .  A
N1252      N1826   1.318   1_545  A
N1252     Co1261   2.087       .  S
C1253      C1267   1.466       .  S
C1253      C1280   1.486       .  S
C1253      N1536   1.351       .  A
C1254      C1552   1.464       .  S
C1254      H1258   1.074       .  S
N1255      C1266   1.342       .  A
N1255      N1795   1.318   1_545  A
N1255     Co1265   2.086       .  S
N1257      C1532   1.349   1_554  A
C1259      C1550   1.463       .  S
C1259      C1310   1.481       .  S
C1259      N1275   1.351       .  A
Co1261    Cl1551   2.441   1_554  S
N1262      C1273   1.350       .  A
C1263      C1297   1.481       .  S
C1263      N1513   1.348       .  A
Co1265    Cl1272   2.450       .  S
N1268      N1810   1.318       .  A
C1271      C1538   1.459       .  S
Cl1272    Co2065   2.448   1_545  S
Cl1272    Co1788   2.443   1_545  S
Cl1272    Co1540   2.446       .  S
C1273      C1533   1.460       .  S
C1273      C1290   1.476       .  S
C1276      C1277   1.408       .  A
C1276      C1281   1.397       .  A
C1276      F1283   1.356       .  S
C1277      C1557   1.409       .  A
C1278      C1556   1.406   1_554  A
C1278      C1279   1.395       .  A
C1278      F1285   1.358       .  S
C1279      C1559   1.407   1_554  A
C1279      F1284   1.358       .  S
C1280      C1558   1.410       .  A
C1280      C1281   1.408       .  A
C1281      F1282   1.356       .  S
C1286      C1566   1.408   1_554  A
C1286      C1291   1.396       .  A
C1286      F1293   1.357       .  S
C1287      C1565   1.407       .  A
C1287      C1288   1.409       .  A
C1288      C1289   1.398       .  A
C1288      F1295   1.357       .  S
C1289      C1290   1.405       .  A
C1289      F1294   1.358       .  S
C1290      C1570   1.406       .  A
C1291      C1569   1.405   1_554  A
C1291      F1292   1.357       .  S
C1296      C1297   1.408       .  A
C1296      C1301   1.397       .  A
C1296      F1582   1.358       .  S
C1297      C1298   1.406       .  A
C1298      C1299   1.399       .  A
C1298      F1305   1.357       .  S
C1299      C1300   1.411       .  A
C1299      F1304   1.358       .  S
C1300      C1301   1.407       .  A
C1301      F1581   1.356       .  S
F1302      C1580   1.356       .  S
F1303      C1575   1.358       .  S
C1306      C1586   1.406       .  A
C1306      C1311   1.392       .  A
C1306      F1313   1.356       .  S
C1307      C1585   1.407       .  A
C1307      C1308   1.407       .  A
C1308      C1309   1.398       .  A
C1308      F1315   1.358       .  S
C1309      C1310   1.408       .  A
C1309      F1314   1.358       .  S
C1310      C1590   1.407       .  A
C1311      C1589   1.407       .  A
C1311      F1312   1.356       .  S
C1316      C1875   1.406       .  A
C1316      C1321   1.395       .  A
C1316      F1323   1.357       .  S
C1317      C1874   1.409       .  A
C1317      C1318   1.406       .  A
C1318      C1319   1.399       .  A
C1318      F1325   1.358       .  S
C1319      C1320   1.407       .  A
C1319      F1324   1.358       .  S
C1320      C1879   1.406       .  A
C1321      C1878   1.406       .  A
C1321      F1322   1.356       .  S
C1326      C1327   1.404       .  A
C1326      C1889   1.394       .  A
C1326      F1333   1.357       .  S
C1327      C1328   1.407       .  A
C1328      C1887   1.400       .  A
C1328      F1335   1.358       .  S
C1329      C1886   1.399       .  A
C1329      C1330   1.407       .  A
C1329      F1334   1.356       .  S
C1330      C1331   1.410   1_545  A
C1331      C1884   1.397       .  A
C1331      F1332   1.358       .  S
C1336      C1337   1.408   1_545  A
C1336      C1341   1.398       .  A
C1336      F1343   1.358       .  S
C1337      C1338   1.409       .  A
C1338      C1339   1.398       .  A
C1338      F1903   1.356       .  S
C1339      C1340   1.407       .  A
C1339      F1902   1.356       .  S
C1340      C1341   1.409   1_565  A
C1341      F1342   1.358       .  S
F1344      C1897   1.354       .  S
F1345      C1896   1.355       .  S
C1346      C1905   1.407       .  A
C1346      C1351   1.400       .  A
C1346      F1353   1.358       .  S
C1347      C1904   1.407   1_545  A
C1347      C1348   1.407       .  A
C1348      C1349   1.395       .  A
C1348      F1355   1.356       .  S
C1349      C1908   1.410   1_545  A
C1349      F1354   1.358       .  S
C1350      C1907   1.408       .  A
C1350      C1351   1.410       .  A
C1351      F1352   1.356       .  S
C1356      C1361   1.397       .  A
C1356      F1363   1.356       .  S
C1357      C1358   1.409       .  A
C1358      C1359   1.402       .  A
C1358      F1365   1.358       .  S
C1359      F1364   1.358       .  S
C1360      C1361   1.406       .  A
C1361      F1362   1.357       .  S
C1366      C1367   1.406       .  A
C1366      C1371   1.397       .  A
C1366      F1373   1.357       .  S
C1368      C1369   1.396       .  A
C1368      F1375   1.358       .  S
C1369      F1374   1.357       .  S
C1370      C1371   1.409       .  A
C1371      F1372   1.358       .  S
C1376      C1381   1.403       .  A
C1376      F1383   1.357       .  S
C1377      C1378   1.407       .  A
C1378      C1379   1.399       .  A
C1378      F1385   1.358       .  S
C1379      F1384   1.358       .  S
C1380      C1381   1.406       .  A
C1381      F1382   1.358       .  S
C1386      C1387   1.409       .  A
C1386      C1391   1.398       .  A
C1386      F1393   1.355       .  S
C1388      C1389   1.402       .  A
C1388      F1395   1.358       .  S
C1389      F1394   1.355       .  S
C1390      C1391   1.408       .  A
C1391      F1392   1.358       .  S
C1396      C1433   1.466       .  S
C1396      C1666   1.489       .  S
N1397      N1414   1.322       .  A
N1397     Co1434   2.076       .  S
C1398      C1436   1.464       .  S
C1398      N1423   1.339       .  A
C1398      H1443   1.082       .  S
H1399      C1440   1.081       .  S
C1400      N1424   1.340       .  A
C1400      H1429   1.082       .  S
Co1401     N1419   2.083       .  S
Co1401     N1409   2.074       .  S
Co1401     N1441   2.077       .  S
Co1401     N1417   2.084       .  S
Co1401    Cl1445   2.446       .  S
N1402      C1440   1.336       .  A
N1402      N1967   1.318       .  A
N1402     Co1403   2.071       .  S
Co1403     N1406   2.089       .  S
Co1403     N1423   2.083       .  S
Co1403     N1410   2.081       .  S
Co1403    Cl2003   2.447       .  S
C1404      C1656   1.489       .  S
C1404      N1442   1.354       .  A
N1405      N1970   1.318       .  A
N1405      N1435   1.323       .  A
N1405     Co1438   2.086       .  S
N1406      N1442   1.326       .  A
N1407      C1994   1.351   1_545  A
N1407      N1417   1.322       .  A
H1408      C1433   1.081       .  S
N1409      N1960   1.318   1_545  A
N1409      N1430   1.322       .  A
N1410      N1415   1.323       .  A
C1411      C1439   1.471       .  S
C1411      C1646   1.495       .  S
N1412      C1427   1.340       .  A
N1412      N1963   1.318   1_545  A
N1412     Co1434   2.080       .  S
C1413      N1441   1.339       .  A
C1413      H1447   1.080       .  S
C1416      C1636   1.479       .  S
C1416      N1437   1.349   1_455  A
N1417      N1981   1.318   1_545  A
N1418      C1444   1.336       .  A
N1418      N1978   1.318   1_545  A
N1418     Co1434   2.074       .  S
N1419      C1433   1.340       .  A
N1420      N1976   1.319       .  A
N1420      N1448   1.323       .  A
N1420     Co1438   2.081       .  S
H1421      C1444   1.080       .  S
H1422      C1439   1.082       .  S
N1423      N1975   1.319       .  A
N1424     Co1438   2.081       .  S
N1425      N1437   1.323       .  A
N1425     Co1434   2.078       .  S
C1426      C1998   1.466       .  S
C1426      C1619   1.484       .  S
C1426      N1430   1.349   1_565  A
C1427      C1446   1.465       .  S
C1427      H1431   1.079       .  S
N1428      C1439   1.343       .  A
N1428     Co1438   2.094       .  S
C1432      C2002   1.459       .  S
C1432      C1596   1.474       .  S
C1432      N1448   1.350       .  A
N1435      C2004   1.352       .  A
C1436      C1606   1.485       .  S
C1436      N1965   1.351       .  A
C1440      C1984   1.461       .  S
C1444      C1990   1.460       .  S
Cl1445    Co1961   2.449   1_545  S
C1446      C1626   1.489       .  S
C1446      N1993   1.352   1_545  A
C1449      C1586   1.476       .  S
C1449      N1467   1.349   1_554  A
N1450      N1467   1.323       .  A
N1450     Co1487   2.077       .  S
C1451      C1489   1.460       .  S
C1451      N1476   1.339       .  A
C1451      H1496   1.081       .  S
H1452      C1493   1.079       .  S
C1453      C1457   1.464       .  S
C1453      N1477   1.343       .  A
C1453      H1482   1.081       .  S
Co1454     N1472   2.081       .  S
Co1454     N1462   2.092       .  S
Co1454     N1494   2.086       .  S
Co1454     N1470   2.085       .  S
N1455      C1493   1.340       .  A
N1455     Co1456   2.083       .  S
Co1456     N1459   2.083       .  S
Co1456     N1476   2.082       .  S
Co1456     N1463   2.083       .  S
C1457      C1566   1.485       .  S
N1458      N1488   1.323       .  A
N1458     Co1491   2.078       .  S
N1459      N1495   1.323       .  A
N1460      N1470   1.324       .  A
H1461      C1486   1.082       .  S
N1462      N1483   1.325       .  A
N1463      N1468   1.324       .  A
C1464      C1492   1.461       .  S
C1464      C1556   1.476       .  S
N1465      C1480   1.339       .  A
N1465     Co1487   2.078       .  S
C1466      N1494   1.341       .  A
C1466      H1500   1.080       .  S
C1469      C1579   1.478   1_554  S
C1469      N1490   1.349   1_554  A
N1471      C1497   1.340       .  A
N1471     Co1487   2.079       .  S
N1472      C1486   1.339       .  A
N1473      N1501   1.325       .  A
N1473     Co1491   2.088       .  S
H1474      C1497   1.076       .  S
H1475      C1492   1.078       .  S
N1477     Co1491   2.086       .  S
N1478      N1490   1.321       .  A
N1478     Co1487   2.075       .  S
C1479      C1669   1.491       .  S
C1479      N1483   1.354       .  A
C1480      C1499   1.464       .  S
C1480      H1484   1.080       .  S
N1481      C1492   1.341       .  A
N1481     Co1491   2.080       .  S
C1485      C1649   1.494       .  S
C1485      N1501   1.352       .  A
Co1487    Cl1498   2.449       .  S
C1489      C1659   1.480       .  S
C1499      C1639   1.484       .  S
C1502      C1539   1.464       .  S
C1502      C1629   1.483       .  S
C1502      N2078   1.350       .  A
N1503      N1520   1.324       .  A
N1503      N2083   1.318   1_545  A
N1503     Co1540   2.088       .  S
C1504      C1542   1.462       .  S
C1504      N1529   1.339       .  A
C1504      H1549   1.080       .  S
H1505      C1546   1.081       .  S
C1506      C2068   1.457       .  S
C1506      N1530   1.334       .  A
C1506      H1535   1.081       .  S
Co1507     N1525   2.076       .  S
Co1507     N1515   2.082       .  S
Co1507     N1547   2.082       .  S
Co1507     N1523   2.076       .  S
Co1507    Cl1830   2.448       .  S
N1508      C1546   1.341       .  A
N1508     Co1509   2.082       .  S
Co1509     N1512   2.083       .  S
Co1509     N1529   2.078       .  S
Co1509     N1516   2.084       .  S
Co1509    Cl2109   2.449       .  S
C1510      C2064   1.457       .  S
C1510      C1599   1.474       .  S
C1510      N1548   1.352       .  A
N1511      N1541   1.326       .  A
N1511     Co1544   2.083       .  S
N1512      N2088   1.318       .  A
N1512      N1548   1.324       .  A
N1513      N1523   1.321       .  A
H1514      C1539   1.080       .  S
N1515      N1536   1.323       .  A
N1516      N2092   1.318       .  A
N1516      N1521   1.322       .  A
C1517      C1545   1.466       .  S
C1517      C1609   1.486       .  S
C1517      N2079   1.352   1_545  A
N1518      C1533   1.338       .  A
N1518     Co1540   2.075       .  S
C1519      C2080   1.466       .  S
C1519      N1547   1.340       .  A
C1519      H1553   1.079       .  S
N1520      C2060   1.352   1_545  A
N1521      C2075   1.351       .  A
C1522      C2077   1.462       .  S
C1522      C1616   1.484       .  S
C1522      N1543   1.353   1_565  A
N1524      C1550   1.339       .  A
N1524     Co1540   2.084       .  S
N1525      C1539   1.339       .  A
N1525      N2061   1.317       .  A
N1526      N1554   1.324       .  A
N1526     Co1544   2.075       .  S
H1527      C1550   1.082       .  S
H1528      C1545   1.079       .  S
N1530      N2070   1.318   1_545  A
N1530     Co1544   2.068       .  S
N1531      N1543   1.324       .  A
N1531      N2105   1.318   1_545  A
N1531     Co1540   2.083       .  S
C1532      C1546   1.462       .  S
C1532      C1559   1.478       .  S
C1533      H1537   1.081       .  S
N1534      C1545   1.339       .  A
N1534      N2074   1.318   1_545  A
N1534     Co1544   2.079       .  S
C1538      C1589   1.475       .  S
C1538      N1554   1.350   1_554  A
N1541      C1552   1.350   1_556  A
C1542      C1576   1.473       .  S
Co1544    Cl1551   2.448       .  S
N1547      N2089   1.318       .  A
Cl1551    Co1786   2.447   1_546  S
Cl1551    Co2067   2.447   1_545  S
C1552      C1569   1.481   1_554  S
C1555      C1556   1.407       .  A
C1555      C1560   1.399       .  A
C1555      F1562   1.357       .  S
C1557      C1558   1.399       .  A
C1557      F1564   1.358       .  S
C1558      F1563   1.358       .  S
C1559      C1560   1.407       .  A
C1560      F1561   1.357       .  S
C1565      C1570   1.395       .  A
C1565      F1572   1.358       .  S
C1566      C1567   1.410       .  A
C1567      C1568   1.403       .  A
C1567      F1574   1.357       .  S
C1568      C1569   1.408       .  A
C1568      F1573   1.358       .  S
C1570      F1571   1.357       .  S
C1575      C1576   1.406   1_554  A
C1575      C1580   1.396       .  A
C1576      C1577   1.404       .  A
C1577      C1578   1.395       .  A
C1577      F1584   1.357       .  S
C1578      C1579   1.409       .  A
C1578      F1583   1.358       .  S
C1579      C1580   1.407   1_556  A
C1585      C1590   1.398       .  A
C1585      F1592   1.357       .  S
C1586      C1587   1.408   1_554  A
C1587      C1588   1.398       .  A
C1587      F1594   1.358       .  S
C1588      C1589   1.407   1_556  A
C1588      F1593   1.358       .  S
C1590      F1591   1.357       .  S
C1595      C2154   1.406       .  A
C1595      C1600   1.392       .  A
C1595      F1602   1.356       .  S
C1596      C2153   1.406       .  A
C1596      C1597   1.406       .  A
C1597      C1598   1.397       .  A
C1597      F1604   1.358       .  S
C1598      C1599   1.405       .  A
C1598      F1603   1.358       .  S
C1599      C2158   1.407       .  A
C1600      C2157   1.406       .  A
C1600      F1601   1.357       .  S
C1605      C1606   1.407       .  A
C1605      C2168   1.396       .  A
C1605      F1612   1.356       .  S
C1606      C1607   1.409       .  A
C1607      C2166   1.401       .  A
C1607      F1614   1.358       .  S
C1608      C2165   1.397       .  A
C1608      C1609   1.409       .  A
C1608      F1613   1.355       .  S
C1609      C1610   1.409   1_545  A
C1610      C2163   1.397       .  A
C1610      F1611   1.358       .  S
C1615      C1616   1.408   1_545  A
C1615      C1620   1.398       .  A
C1615      F1622   1.358       .  S
C1616      C1617   1.409       .  A
C1617      C1618   1.396       .  A
C1617      F2182   1.355       .  S
C1618      C1619   1.407       .  A
C1618      F2181   1.356       .  S
C1619      C1620   1.410   1_565  A
C1620      F1621   1.358       .  S
F1623      C2176   1.356       .  S
F1624      C2175   1.356       .  S
C1625      C2184   1.409       .  A
C1625      C1630   1.397       .  A
C1625      F1632   1.358       .  S
C1626      C2183   1.409   1_545  A
C1626      C1627   1.410       .  A
C1627      C1628   1.399       .  A
C1627      F1634   1.355       .  S
C1628      C2187   1.408   1_545  A
C1628      F1633   1.358       .  S
C1629      C2186   1.408       .  A
C1629      C1630   1.407       .  A
C1630      F1631   1.356       .  S
C1635      C1640   1.398       .  A
C1635      F1642   1.356       .  S
C1636      C1637   1.408   1_455  A
C1637      C1638   1.398       .  A
C1637      F1644   1.358       .  S
C1638      F1643   1.358       .  S
C1639      C1640   1.408       .  A
C1640      F1641   1.356       .  S
C1645      C1646   1.409       .  A
C1645      C1650   1.402       .  A
C1645      F1652   1.355       .  S
C1647      C1648   1.398       .  A
C1647      F1654   1.358       .  S
C1648      F1653   1.357       .  S
C1649      C1650   1.411       .  A
C1650      F1651   1.358       .  S
C1655      C1660   1.398       .  A
C1655      F1662   1.357       .  S
C1656      C1657   1.409       .  A
C1657      C1658   1.400       .  A
C1657      F1664   1.358       .  S
C1658      F1663   1.358       .  S
C1659      C1660   1.407       .  A
C1660      F1661   1.357       .  S
C1665      C1666   1.410       .  A
C1665      C1670   1.400       .  A
C1665      F1672   1.355       .  S
C1667      C1668   1.397       .  A
C1667      F1674   1.358       .  S
C1668      F1673   1.356       .  S
C1669      C1670   1.409       .  A
C1670      F1671   1.358       .  S
C1675      C1712   1.461       .  S
C1675      C1945   1.475       .  S
N1676      N1693   1.323       .  A
N1676     Co1713   2.082       .  S
C1677      C1715   1.462       .  S
C1677      N1702   1.339       .  A
C1677      H1722   1.082       .  S
H1678      C1719   1.081       .  S
C1679      N1703   1.341       .  A
C1679      H1708   1.081       .  S
Co1680     N1698   2.068       .  S
Co1680     N1688   2.093       .  S
Co1680     N1720   2.086       .  S
Co1680     N1696   2.073       .  S
Co1680    Cl1724   2.455       .  S
N1681      C1719   1.340       .  A
N1681     Co1682   2.085       .  S
Co1682     N1685   2.080       .  S
Co1682     N1702   2.079       .  S
Co1682     N1689   2.085       .  S
C1683      C1935   1.485       .  S
C1683      N1721   1.350       .  A
N1684      N1714   1.322       .  A
N1684     Co1717   2.078       .  S
N1685      N1721   1.323       .  A
N1686      N1696   1.323       .  A
H1687      C1712   1.080       .  S
N1688      N1709   1.327       .  A
N1689      N1694   1.322       .  A
C1690      C1718   1.465       .  S
C1690      C1925   1.484       .  S
N1691      C1706   1.337       .  A
N1691     Co1713   2.075       .  S
C1692      N1720   1.341       .  A
C1692      H1726   1.080       .  S
C1695      C1915   1.488       .  S
C1695      N1716   1.351   1_455  A
N1697      C1723   1.335       .  A
N1697     Co1713   2.073       .  S
N1698      C1712   1.338       .  A
N1699      N1727   1.321       .  A
N1699     Co1717   2.073       .  S
H1700      C1723   1.081       .  S
H1701      C1718   1.078       .  S
N1703     Co1717   2.084       .  S
N1704      N1716   1.324       .  A
N1704     Co1713   2.081       .  S
C1705      C1898   1.495       .  S
C1705      N1709   1.355       .  A
C1706      C1725   1.460       .  S
C1706      H1710   1.081       .  S
N1707      C1718   1.339       .  A
N1707     Co1717   2.076       .  S
C1711      C1875   1.474       .  S
C1711      N1727   1.348   1_545  A
C1715      C1885   1.480       .  S
C1725      C1905   1.478       .  S
C1728      C2044   1.461       .  S
C1728      C1865   1.478       .  S
C1728      N1746   1.350       .  A
N1729      N1746   1.323       .  A
N1729      N2030   1.320       .  A
N1729     Co1766   2.082       .  S
C1730      C1768   1.460       .  S
C1730      N1755   1.337       .  A
C1730      H1775   1.081       .  S
H1731      C1772   1.080       .  S
C1732      C1736   1.465       .  S
C1732      N1756   1.340       .  A
C1732      H1761   1.080       .  S
Co1733     N1751   2.076       .  S
Co1733     N1741   2.067       .  S
Co1733     N1773   2.070       .  S
Co1733     N1749   2.089       .  S
Co1733    Cl2056   2.451   1_554  S
N1734      C1772   1.342       .  A
N1734     Co1735   2.089       .  S
Co1735     N1738   2.082       .  S
Co1735     N1755   2.077       .  S
Co1735     N1742   2.085       .  S
C1736      C1845   1.482       .  S
C1736      N2053   1.349       .  A
N1737      N1767   1.325       .  A
N1737     Co1770   2.085       .  S
N1738      N2035   1.317   1_554  A
N1738      N1774   1.322       .  A
N1739      N1749   1.326       .  A
H1740      C1765   1.081       .  S
N1741      N1762   1.321       .  A
N1742      N2039   1.319   1_554  A
N1742      N1747   1.324       .  A
C1743      C1771   1.466       .  S
C1743      C1835   1.479       .  S
C1743      N2026   1.347       .  A
N1744      C1759   1.341       .  A
N1744     Co1766   2.089       .  S
C1745      C2027   1.462       .  S
C1745      N1773   1.338       .  A
C1745      H1779   1.080       .  S
N1747      C2022   1.351   1_554  A
C1748      C2024   1.464       .  S
C1748      C1858   1.483       .  S
C1748      N1769   1.351       .  A
N1750      C1776   1.339       .  A
N1750     Co1766   2.078       .  S
N1751      C1765   1.338       .  A
N1751      N2008   1.319   1_554  A
N1752      N1780   1.321       .  A
N1752     Co1770   2.077       .  S
H1753      C1776   1.075       .  S
H1754      C1771   1.078       .  S
N1756      N2017   1.318       .  A
N1756     Co1770   2.080       .  S
N1757      N1769   1.322       .  A
N1757      N2052   1.318       .  A
N1757     Co1766   2.082       .  S
C1758      C1948   1.473       .  S
C1758      N1762   1.346       .  A
C1759      C1778   1.466       .  S
C1759      H1763   1.081       .  S
N1760      C1771   1.342       .  A
N1760      N2021   1.318       .  A
N1760     Co1770   2.084       .  S
C1764      C1928   1.483   1_455  S
C1764      N1780   1.350   1_455  A
C1765      C2007   1.459       .  S
Co1766    Cl1777   2.443       .  S
C1768      C1938   1.480       .  S
N1773      N2036   1.318   1_554  A
N1774      C2015   1.352   1_554  A
Cl1777    Co2012   2.452       .  S
C1778      C1918   1.487       .  S
C1781      C1818   1.466       .  S
C1781      C1908   1.481       .  S
N1782      N1799   1.322       .  A
N1782     Co1819   2.081       .  S
C1783      C1821   1.461       .  S
C1783      N1808   1.337       .  A
C1783      H1828   1.080       .  S
H1784      C1825   1.081       .  S
C1785      N1809   1.339       .  A
C1785      H1814   1.080       .  S
Co1786     N1804   2.077       .  S
Co1786     N1794   2.081       .  S
Co1786     N1826   2.080       .  S
Co1786     N1802   2.073       .  S
N1787      C1825   1.337       .  A
N1787      N2073   1.317       .  A
N1787     Co1788   2.071       .  S
Co1788     N1791   2.069       .  S
Co1788     N1808   2.071       .  S
Co1788     N1795   2.074       .  S
C1789      C1878   1.473       .  S
C1789      N1827   1.347   1_545  A
N1790      N2076   1.319       .  A
N1790      N1820   1.322       .  A
N1790     Co1823   2.081       .  S
N1791      N1827   1.321       .  A
N1792      C2100   1.348   1_554  A
N1792      N1802   1.321       .  A
H1793      C1818   1.079       .  S
N1794      N2066   1.320   1_554  A
N1794      N1815   1.323       .  A
N1795      N1800   1.321       .  A
C1796      C1824   1.466       .  S
C1796      C1888   1.481       .  S
N1797      C1812   1.340       .  A
N1797      N2069   1.318   1_554  A
N1797     Co1819   2.078       .  S
C1798      N1826   1.339       .  A
C1798      H1832   1.079       .  S
C1801      C1895   1.494       .  S
C1801      N1822   1.353       .  A
N1802      N2087   1.318   1_554  A
N1803      C1829   1.338       .  A
N1803      N2084   1.318   1_554  A
N1803     Co1819   2.073       .  S
N1804      C1818   1.339       .  A
N1805      N2082   1.318       .  A
N1805      N1833   1.324       .  A
N1805     Co1823   2.084       .  S
H1806      C1829   1.081       .  S
H1807      C1824   1.080       .  S
N1808      N2081   1.318       .  A
N1809     Co1823   2.077       .  S
N1810      N1822   1.326       .  A
N1810     Co1819   2.086       .  S
C1811      C1825   1.460       .  S
C1811      C1838   1.480       .  S
C1811      N2094   1.351       .  A
C1812      C2110   1.467       .  S
C1812      H1816   1.072       .  S
N1813      C1824   1.342       .  A
N1813     Co1823   2.084       .  S
N1815      C2090   1.350   1_554  A
C1817      C2108   1.460       .  S
C1817      C1868   1.481       .  S
C1817      N1833   1.352       .  A
Co1819    Cl2109   2.450   1_554  S
N1820      C1831   1.349       .  A
C1821      C1855   1.479       .  S
C1821      N2071   1.351       .  A
Co1823    Cl1830   2.450       .  S
C1829      C2096   1.461       .  S
Cl1830    Co2098   2.445       .  S
C1831      C2091   1.462       .  S
C1831      C1848   1.477       .  S
C1834      C1835   1.406       .  A
C1834      C1839   1.398       .  A
C1834      F1841   1.357       .  S
C1835      C2115   1.408       .  A
C1836      C2114   1.407   1_554  A
C1836      C1837   1.398       .  A
C1836      F1843   1.358       .  S
C1837      C2117   1.408   1_554  A
C1837      F1842   1.358       .  S
C1838      C2116   1.406       .  A
C1838      C1839   1.409       .  A
C1839      F1840   1.357       .  S
C1844      C2124   1.407   1_554  A
C1844      C1849   1.395       .  A
C1844      F1851   1.358       .  S
C1845      C2123   1.410       .  A
C1845      C1846   1.408       .  A
C1846      C1847   1.397       .  A
C1846      F1853   1.356       .  S
C1847      C1848   1.406       .  A
C1847      F1852   1.358       .  S
C1848      C2128   1.406       .  A
C1849      C2127   1.408   1_554  A
C1849      F1850   1.355       .  S
C1854      C1855   1.406       .  A
C1854      C1859   1.397       .  A
C1854      F2140   1.358       .  S
C1855      C1856   1.407       .  A
C1856      C1857   1.395       .  A
C1856      F1863   1.356       .  S
C1857      C1858   1.409       .  A
C1857      F1862   1.358       .  S
C1858      C1859   1.409       .  A
C1859      F2139   1.356       .  S
F1860      C2138   1.356       .  S
F1861      C2133   1.358       .  S
C1864      C2144   1.407       .  A
C1864      C1869   1.395       .  A
C1864      F1871   1.356       .  S
C1865      C2143   1.406       .  A
C1865      C1866   1.407       .  A
C1866      C1867   1.397       .  A
C1866      F1873   1.358       .  S
C1867      C1868   1.407       .  A
C1867      F1872   1.358       .  S
C1868      C2148   1.408       .  A
C1869      C2147   1.405       .  A
C1869      F1870   1.357       .  S
C1874      C1879   1.395       .  A
C1874      F1881   1.356       .  S
C1875      C1876   1.407   1_545  A
C1876      C1877   1.394       .  A
C1876      F1883   1.358       .  S
C1877      C1878   1.407   1_565  A
C1877      F1882   1.358       .  S
C1879      F1880   1.357       .  S
C1884      C1885   1.406       .  A
C1884      F1891   1.357       .  S
C1885      C1886   1.407   1_565  A
C1886      F1893   1.358       .  S
C1887      C1888   1.408       .  A
C1887      F1892   1.357       .  S
C1888      C1889   1.409       .  A
C1889      F1890   1.358       .  S
C1894      C1895   1.411       .  A
C1894      C1899   1.405       .  A
C1894      F1901   1.358       .  S
C1895      C1896   1.408       .  A
C1896      C1897   1.397       .  A
C1897      C1898   1.410       .  A
C1898      C1899   1.410       .  A
C1899      F1900   1.358       .  S
C1904      C1909   1.395       .  A
C1904      F1911   1.358       .  S
C1905      C1906   1.405       .  A
C1906      C1907   1.393       .  A
C1906      F1913   1.356       .  S
C1907      F1912   1.358       .  S
C1908      C1909   1.407       .  A
C1909      F1910   1.356       .  S
C1914      C1919   1.399       .  A
C1914      F1921   1.356       .  S
C1915      C1916   1.410   1_455  A
C1916      C1917   1.401       .  A
C1916      F1923   1.358       .  S
C1917      F1922   1.358       .  S
C1918      C1919   1.407       .  A
C1919      F1920   1.356       .  S
C1924      C1925   1.409       .  A
C1924      C1929   1.396       .  A
C1924      F1931   1.355       .  S
C1926      C1927   1.396       .  A
C1926      F1933   1.358       .  S
C1927      F1932   1.356       .  S
C1928      C1929   1.409       .  A
C1929      F1930   1.358       .  S
C1934      C1939   1.397       .  A
C1934      F1941   1.357       .  S
C1935      C1936   1.410       .  A
C1936      C1937   1.401       .  A
C1936      F1943   1.358       .  S
C1937      F1942   1.358       .  S
C1938      C1939   1.408       .  A
C1939      F1940   1.357       .  S
C1944      C1945   1.407       .  A
C1944      C1949   1.396       .  A
C1944      F1951   1.357       .  S
C1946      C1947   1.399       .  A
C1946      F1953   1.358       .  S
C1947      F1952   1.357       .  S
C1948      C1949   1.407       .  A
C1949      F1950   1.358       .  S
C1954      C1991   1.464       .  S
C1954      C2224   1.488       .  S
N1955      N1972   1.322       .  A
N1955     Co1992   2.072       .  S
C1956      C1994   1.465       .  S
C1956      N1981   1.339       .  A
C1956      H2001   1.080       .  S
H1957      C1998   1.081       .  S
C1958      N1982   1.338       .  A
C1958      H1987   1.081       .  S
Co1959     N1977   2.082       .  S
Co1959     N1967   2.087       .  S
Co1959     N1999   2.085       .  S
Co1959     N1975   2.084       .  S
Co1959    Cl2003   2.451       .  S
N1960      C1998   1.340       .  A
N1960     Co1961   2.082       .  S
Co1961     N1964   2.083       .  S
Co1961     N1981   2.077       .  S
Co1961     N1968   2.086       .  S
C1962      C2214   1.486       .  S
C1962      N2000   1.352       .  A
N1963      N1993   1.323       .  A
N1963     Co1996   2.087       .  S
N1964      N2000   1.323       .  A
N1965      N1975   1.325       .  A
H1966      C1991   1.082       .  S
N1967      N1988   1.324       .  A
N1968      N1973   1.324       .  A
C1969      C1997   1.466       .  S
C1969      C2204   1.483       .  S
N1970      C1985   1.340       .  A
N1970     Co1992   2.078       .  S
C1971      N1999   1.339       .  A
C1971      H2005   1.080       .  S
C1974      C2194   1.481       .  S
C1974      N1995   1.350   1_455  A
N1976      C2002   1.337       .  A
N1976     Co1992   2.070       .  S
N1977      C1991   1.341       .  A
N1978      N2006   1.323       .  A
N1978     Co1996   2.077       .  S
H1979      C2002   1.080       .  S
H1980      C1997   1.081       .  S
N1982     Co1996   2.072       .  S
N1983      N1995   1.324       .  A
N1983     Co1992   2.082       .  S
C1984      C2177   1.482       .  S
C1984      N1988   1.353       .  A
C1985      C2004   1.465       .  S
C1985      H1989   1.079       .  S
N1986      C1997   1.342       .  A
N1986     Co1996   2.085       .  S
C1990      C2154   1.475       .  S
C1990      N2006   1.350   1_545  A
C1994      C2164   1.486       .  S
C2004      C2184   1.487       .  S
C2007      C2144   1.475       .  S
C2007      N2025   1.350   1_554  A
N2008      N2025   1.322       .  A
N2008     Co2045   2.080       .  S
C2009      C2047   1.462       .  S
C2009      N2034   1.338       .  A
C2009      H2054   1.080       .  S
H2010      C2051   1.079       .  S
C2011      C2015   1.461       .  S
C2011      N2035   1.336       .  A
C2011      H2040   1.080       .  S
Co2012     N2030   2.080       .  S
Co2012     N2020   2.086       .  S
Co2012     N2052   2.075       .  S
Co2012     N2028   2.085       .  S
N2013      C2051   1.340       .  A
N2013     Co2014   2.075       .  S
Co2014     N2017   2.076       .  S
Co2014     N2034   2.073       .  S
Co2014     N2021   2.072       .  S
C2015      C2124   1.481       .  S
N2016      N2046   1.324       .  A
N2016     Co2049   2.080       .  S
N2017      N2053   1.322       .  A
N2018      N2028   1.323       .  A
H2019      C2044   1.081       .  S
N2020      N2041   1.325       .  A
N2021      N2026   1.320       .  A
C2022      C2050   1.462       .  S
C2022      C2114   1.481       .  S
N2023      C2038   1.339       .  A
N2023     Co2045   2.079       .  S
C2024      N2052   1.339       .  A
C2024      H2058   1.080       .  S
C2027      C2137   1.476   1_554  S
C2027      N2048   1.348   1_554  A
N2029      C2055   1.343       .  A
N2029     Co2045   2.084       .  S
N2030      C2044   1.339       .  A
N2031      N2059   1.323       .  A
N2031     Co2049   2.076       .  S
H2032      C2055   1.075       .  S
H2033      C2050   1.078       .  S
N2035     Co2049   2.068       .  S
N2036      N2048   1.320       .  A
N2036     Co2045   2.073       .  S
C2037      C2227   1.484       .  S
C2037      N2041   1.352       .  A
C2038      C2057   1.464       .  S
C2038      H2042   1.080       .  S
N2039      C2050   1.338       .  A
N2039     Co2049   2.076       .  S
C2043      C2207   1.479       .  S
C2043      N2059   1.349   1_455  A
Co2045    Cl2056   2.446       .  S
C2047      C2217   1.482       .  S
C2057      C2197   1.488       .  S
C2060      C2097   1.464       .  S
C2060      C2187   1.486       .  S
N2061      N2078   1.322       .  A
N2061     Co2098   2.078       .  S
C2062      C2100   1.460       .  S
C2062      N2087   1.337       .  A
C2062      H2107   1.080       .  S
H2063      C2104   1.081       .  S
C2064      N2088   1.335       .  A
C2064      H2093   1.081       .  S
Co2065     N2083   2.077       .  S
Co2065     N2073   2.080       .  S
Co2065     N2105   2.076       .  S
Co2065     N2081   2.082       .  S
N2066      C2104   1.339       .  A
N2066     Co2067   2.082       .  S
Co2067     N2070   2.078       .  S
Co2067     N2087   2.071       .  S
Co2067     N2074   2.084       .  S
C2068      C2157   1.474       .  S
C2068      N2106   1.351   1_545  A
N2069      N2099   1.321       .  A
N2069     Co2102   2.078       .  S
N2070      N2106   1.324       .  A
N2071      N2081   1.323       .  A
H2072      C2097   1.080       .  S
N2073      N2094   1.323       .  A
N2074      N2079   1.323       .  A
C2075      C2103   1.467       .  S
C2075      C2167   1.487       .  S
N2076      C2091   1.340       .  A
N2076     Co2098   2.077       .  S
C2077      N2105   1.337       .  A
C2077      H2111   1.080       .  S
C2080      C2174   1.482       .  S
C2080      N2101   1.349       .  A
N2082      C2108   1.338       .  A
N2082     Co2098   2.075       .  S
N2083      C2097   1.339       .  A
N2084      N2112   1.320       .  A
N2084     Co2102   2.067       .  S
H2085      C2108   1.081       .  S
H2086      C2103   1.079       .  S
N2088     Co2102   2.066       .  S
N2089      N2101   1.321       .  A
N2089     Co2098   2.075       .  S
C2090      C2104   1.463       .  S
C2090      C2117   1.481       .  S
C2091      H2095   1.081       .  S
N2092      C2103   1.342       .  A
N2092     Co2102   2.083       .  S
C2096      C2147   1.473       .  S
C2096      N2112   1.347   1_554  A
N2099      C2110   1.350   1_556  A
C2100      C2134   1.473       .  S
Co2102    Cl2109   2.442       .  S
C2110      C2127   1.483   1_554  S
C2113      C2114   1.408       .  A
C2113      C2118   1.397       .  A
C2113      F2120   1.356       .  S
C2115      C2116   1.394       .  A
C2115      F2122   1.358       .  S
C2116      F2121   1.358       .  S
C2117      C2118   1.407       .  A
C2118      F2119   1.357       .  S
C2123      C2128   1.397       .  A
C2123      F2130   1.358       .  S
C2124      C2125   1.409       .  A
C2125      C2126   1.395       .  A
C2125      F2132   1.356       .  S
C2126      C2127   1.409       .  A
C2126      F2131   1.358       .  S
C2128      F2129   1.357       .  S
C2133      C2134   1.405   1_554  A
C2133      C2138   1.394       .  A
C2134      C2135   1.406       .  A
C2135      C2136   1.394       .  A
C2135      F2142   1.357       .  S
C2136      C2137   1.408       .  A
C2136      F2141   1.358       .  S
C2137      C2138   1.407   1_556  A
C2143      C2148   1.398       .  A
C2143      F2150   1.357       .  S
C2144      C2145   1.406   1_554  A
C2145      C2146   1.394       .  A
C2145      F2152   1.358       .  S
C2146      C2147   1.407   1_556  A
C2146      F2151   1.358       .  S
C2148      F2149   1.357       .  S
C2153      C2158   1.394       .  A
C2153      F2160   1.357       .  S
C2154      C2155   1.407   1_545  A
C2155      C2156   1.399       .  A
C2155      F2162   1.358       .  S
C2156      C2157   1.406   1_565  A
C2156      F2161   1.358       .  S
C2158      F2159   1.357       .  S
C2163      C2164   1.409       .  A
C2163      F2170   1.355       .  S
C2164      C2165   1.409   1_565  A
C2165      F2172   1.358       .  S
C2166      C2167   1.410       .  A
C2166      F2171   1.356       .  S
C2167      C2168   1.409       .  A
C2168      F2169   1.358       .  S
C2173      C2174   1.409       .  A
C2173      C2178   1.396       .  A
C2173      F2180   1.358       .  S
C2174      C2175   1.407       .  A
C2175      C2176   1.397       .  A
C2176      C2177   1.410       .  A
C2177      C2178   1.407       .  A
C2178      F2179   1.358       .  S
C2183      C2188   1.397       .  A
C2183      F2190   1.358       .  S
C2184      C2185   1.409       .  A
C2185      C2186   1.398       .  A
C2185      F2192   1.355       .  S
C2186      F2191   1.358       .  S
C2187      C2188   1.409       .  A
C2188      F2189   1.355       .  S
C2193      C2198   1.397       .  A
C2193      F2200   1.356       .  S
C2194      C2195   1.408   1_455  A
C2195      C2196   1.399       .  A
C2195      F2202   1.358       .  S
C2196      F2201   1.358       .  S
C2197      C2198   1.409       .  A
C2198      F2199   1.356       .  S
C2203      C2204   1.407       .  A
C2203      C2208   1.399       .  A
C2203      F2210   1.357       .  S
C2205      C2206   1.402       .  A
C2205      F2212   1.358       .  S
C2206      F2211   1.356       .  S
C2207      C2208   1.407   1_455  A
C2208      F2209   1.358       .  S
C2213      C2218   1.397       .  A
C2213      F2220   1.356       .  S
C2214      C2215   1.408       .  A
C2215      C2216   1.396       .  A
C2215      F2222   1.358       .  S
C2216      F2221   1.358       .  S
C2217      C2218   1.409       .  A
C2218      F2219   1.356       .  S
C2223      C2224   1.410       .  A
C2223      C2228   1.401       .  A
C2223      F2230   1.356       .  S
C2225      C2226   1.398       .  A
C2225      F2232   1.358       .  S
C2226      F2231   1.356       .  S
C2227      C2228   1.407       .  A
C2228      F2229   1.358       .  S
