geometry optimzed in LAMMPS
_audit_creation_date              2020-11-30 
_audit_creation_method            'lammps2cif' 
_symmetry_space_group_name_H-M    'P1' 
_symmetry_Int_Tables_number       1 
_symmetry_cell_setting            triclinic 
loop_ 
_symmetry_equiv_pos_as_xyz 
  x,y,z 
_cell_length_a                    30.49223869 
_cell_length_b                    30.871963245782982 
_cell_length_c                    34.531754930937886 
_cell_angle_alpha                 89.61487175940097 
_cell_angle_beta                  90.11498498773219 
_cell_angle_gamma                 89.49204416444822 
loop_ 
_atom_site_label 
_atom_site_type_symbol 
_atom_site_fract_x 
_atom_site_fract_y 
_atom_site_fract_z 
_atom_site_charge 
C1          C  0.86281247  0.36254043  0.03807511     0.30600
C2          C  0.86028705  0.36322201  0.45855309     0.30600
C3          C  0.81828980  0.37304271  0.01960567    -0.05600
C4          C  0.89341795  0.39472961  0.01767351    -0.06300
C5          C  0.87614778  0.31998853  0.01820793    -0.06200
C6          C  0.81654526  0.37317097  0.47925309    -0.05600
C7          C  0.89172056  0.39519953  0.47741620    -0.06300
C8          C  0.87341422  0.31981691  0.47785252    -0.06200
C9          C  0.77433276  0.38517318  0.46927465    -0.31600
N10         N  0.75151646  0.39386474  0.00210145     0.14900
C11         C  0.77801360  0.38624558  0.03303835    -0.31600
H12         H  0.76951205  0.39242137  0.06292451     0.16800
C13         C  0.92191936  0.42469024  0.46446499    -0.30600
N14         N  0.94211669  0.44187624  0.49575703     0.13600
C15         C  0.92571712  0.42312213  0.02823225    -0.30600
C16         C  0.88609124  0.27911714  0.46597213    -0.30900
N17         N  0.89933679  0.25603351  0.99746858     0.14100
H18         H  0.88612354  0.26705344  0.43665235     0.16700
C19         C  0.89387513  0.28073558  0.02939142    -0.30900
H20         H  0.90376565  0.27120777  0.05833757     0.16700
H21         H  0.93760955  0.42887876  0.05725482     0.16700
H22         H  0.76097805  0.38851301  0.44037989     0.16800
H23         H  0.92877024  0.43297914  0.43458761     0.16800
C24         C  0.86404411  0.36455052  0.20873069     0.30600
C25         C  0.85933088  0.36461998  0.28812050     0.30600
C26         C  0.87581224  0.32140847  0.22913112    -0.05600
C27         C  0.89504294  0.39571677  0.22967094    -0.06300
C28         C  0.81920764  0.37551623  0.22612783    -0.06200
C29         C  0.87274109  0.32116481  0.26946175    -0.05600
C30         C  0.89173241  0.39620749  0.26984600    -0.06300
C31         C  0.81632096  0.37476585  0.26634106    -0.06200
C32         C  0.88563828  0.28048738  0.28196200    -0.31600
N33         N  0.89791284  0.25687791  0.25073193     0.14900
C34         C  0.89264833  0.28175929  0.21847232    -0.31600
H35         H  0.90230684  0.27228350  0.18959753     0.23600
C36         C  0.92297652  0.42384904  0.28367905    -0.30600
N37         N  0.94599791  0.43933276  0.25314688     0.13600
C38         C  0.92993828  0.42171743  0.22016353    -0.30600
C39         C  0.77308004  0.38287229  0.27527749    -0.30900
N40         N  0.75050795  0.39082278  0.24199389     0.14100
H41         H  0.75906464  0.38392702  0.30392508     0.16700
C42         C  0.77842893  0.38601661  0.21172706    -0.30900
H43         H  0.76983402  0.39035895  0.18151014     0.16700
H44         H  0.94302879  0.42730320  0.19151258     0.16700
H45         H  0.88663795  0.26883042  0.31156218     0.16800
H46         H  0.92932654  0.43133163  0.31374586     0.16800
C47         C  0.36530962  0.15475091  0.03851157     0.30600
C48         C  0.36449685  0.15824573  0.45916218     0.30600
C49         C  0.37009709  0.19991672  0.02039003    -0.05600
C50         C  0.40161902  0.12841037  0.01802726    -0.06300
C51         C  0.32406823  0.13714132  0.01861594    -0.06200
C52         C  0.37031173  0.20194442  0.47996677    -0.05600
C53         C  0.40175491  0.13071198  0.47768410    -0.06300
C54         C  0.32341920  0.13972910  0.47847439    -0.06200
C55         C  0.39097380  0.24020298  0.47040577    -0.31600
N56         N  0.40020735  0.26255930  0.50317949     0.14900
C57         C  0.38893977  0.23728895  0.03380411    -0.31600
H58         H  0.39753594  0.24348487  0.06363776     0.16800
C59         C  0.43546819  0.10406822  0.46515096    -0.30600
N60         N  0.45476156  0.08489330  0.49650522     0.13600
C61         C  0.43362841  0.09885347  0.02871044    -0.30600
C62         C  0.28372081  0.12381825  0.46615721    -0.30900
N63         N  0.26047288  0.11117545  0.49775222     0.14100
H64         H  0.27232143  0.12230099  0.43649571     0.16700
C65         C  0.28551961  0.11785539  0.02970673    -0.30900
H66         H  0.27648949  0.10874752  0.05888081     0.16700
H67         H  0.43954643  0.08641948  0.05760123     0.16700
H68         H  0.40074503  0.24990204  0.44159666     0.16800
H69         H  0.44485544  0.09833568  0.43541521     0.16800
C70         C  0.36447362  0.15475497  0.28870139     0.30600
C71         C  0.36626623  0.15307261  0.20923837     0.30600
C72         C  0.37389206  0.19815824  0.26822270    -0.05600
C73         C  0.39986751  0.12529870  0.27051021    -0.06300
C74         C  0.32237443  0.13986339  0.26865132    -0.06200
C75         C  0.37422050  0.19725075  0.22795261    -0.05600
C76         C  0.39981680  0.12333884  0.23015310    -0.06300
C77         C  0.32328752  0.13845761  0.22841816    -0.06200
C78         C  0.38810160  0.23712097  0.21512168    -0.31600
N79         N  0.39702477  0.26211888  0.24639924     0.14900
C80         C  0.38959851  0.23808404  0.27881770    -0.31600
H81         H  0.39804689  0.24781913  0.30788275     0.16800
C82         C  0.43039758  0.09232671  0.21999914    -0.30600
N83         N  0.45116790  0.07799010  0.25250065     0.13600
C84         C  0.43292370  0.09805549  0.28346015    -0.30600
C85         C  0.28417900  0.12074856  0.21671039    -0.30900
N86         N  0.25898752  0.11331866  0.24844447     0.14100
H87         H  0.27536192  0.11225299  0.18741067     0.16700
C88         C  0.28229693  0.12458093  0.28036412    -0.30900
H89         H  0.27106650  0.12162232  0.30996633     0.16700
H90         H  0.44311600  0.09302205  0.31319081     0.16700
H91         H  0.39290381  0.24655719  0.18520467     0.16800
H92         H  0.43617265  0.07991862  0.19125334     0.16800
C93         C  0.65509163  0.86150769  0.04251685     0.30600
C94         C  0.65689317  0.85903686  0.46321172     0.30600
C95         C  0.64092762  0.81903148  0.02383760    -0.05600
C96         C  0.62572013  0.89532466  0.02151545    -0.06300
C97         C  0.69995316  0.87047833  0.02353897    -0.06200
C98         C  0.64204482  0.81778379  0.48382874    -0.05600
C99         C  0.62714293  0.89423791  0.48112799    -0.06300
C100        C  0.70110407  0.86861175  0.48307686    -0.06200
C101        C  0.62688748  0.77796454  0.47279036    -0.31600
N102        N  0.61584616  0.75499298  0.00506527     0.14900
C103        C  0.62407483  0.78022561  0.03643412    -0.31600
H104        H  0.61661233  0.77209056  0.06618198     0.16800
C105        C  0.60195667  0.92835255  0.46763593    -0.30600
N106        N  0.58361308  0.94903649  0.99828326     0.13600
C107        C  0.59871540  0.92967039  0.03133028    -0.30600
C108        C  0.73777587  0.89120630  0.47148572    -0.30900
N109        N  0.75937655  0.90582396  0.00314341     0.14100
H110        H  0.74713694  0.89756050  0.44190317     0.16700
C111        C  0.73532753  0.89509855  0.03472721    -0.30900
H112        H  0.74176414  0.90652997  0.06372585     0.16700
H113        H  0.59054004  0.93990601  0.06034375     0.16700
H114        H  0.62382722  0.76683472  0.44327635     0.16800
H115        H  0.59827824  0.93814014  0.43769024     0.16800
C116        C  0.65787316  0.85703882  0.29275987     0.30600
C117        C  0.65511621  0.85929759  0.21340420     0.30600
C118        C  0.64262815  0.81572528  0.27277128    -0.05600
C119        C  0.62787961  0.89213955  0.27458324    -0.06300
C120        C  0.70162232  0.86675817  0.27252806    -0.06200
C121        C  0.64070188  0.81700160  0.23276059    -0.05600
C122        C  0.62680215  0.89361451  0.23421916    -0.06300
C123        C  0.70066986  0.86722469  0.23196405    -0.06200
C124        C  0.62482270  0.77772677  0.22081135    -0.31600
N125        N  0.61750066  0.75221604  0.25251027     0.14900
C126        C  0.62911887  0.77533580  0.28437997    -0.31600
H127        H  0.62879875  0.76392940  0.31399203     0.16800
C128        C  0.60057904  0.92839930  0.22395605    -0.30600
N129        N  0.58422579  0.94678636  0.25659038     0.13600
C130        C  0.60167045  0.92553081  0.28767056    -0.30600
C131        C  0.73723381  0.89004422  0.22002884    -0.30900
N132        N  0.76043147  0.90256024  0.25159535     0.14100
H133        H  0.74525939  0.89857279  0.19047498     0.16700
C134        C  0.73708273  0.89124922  0.28334030    -0.30900
H135        H  0.74345818  0.90294826  0.31221696     0.16700
H136        H  0.59637495  0.93423950  0.31757752     0.16700
H137        H  0.61815651  0.76900784  0.19110763     0.16800
H138        H  0.59363542  0.93958954  0.19485587     0.16800
C139        C  0.14942609  0.65626731  0.45900741     0.30600
C140        C  0.14726680  0.65338515  0.03847218     0.30600
C141        C  0.13591658  0.69843561  0.47942369    -0.05600
C142        C  0.11901867  0.62256805  0.47719235    -0.06300
C143        C  0.19360775  0.64609152  0.47927433    -0.06200
C144        C  0.13358713  0.69639048  0.01955875    -0.05600
C145        C  0.11862282  0.62039795  0.01744475    -0.06300
C146        C  0.19227134  0.64404765  0.01969805    -0.06200
C147        C  0.11885619  0.73597970  0.03229712    -0.31600
N148        N  0.11324107  0.76251146  0.50107007     0.14900
C149        C  0.12568805  0.74035484  0.46899047    -0.31600
H150        H  0.12786555  0.75393136  0.44015868     0.16800
C151        C  0.09312610  0.58570597  0.02742426    -0.30600
N152        N  0.07600047  0.56860417  0.49471583     0.13600
C153        C  0.09196144  0.59058324  0.46371072    -0.30600
C154        C  0.23235362  0.62815863  0.03197744    -0.30900
N155        N  0.25849654  0.62237022  0.50060935     0.14100
H156        H  0.24099619  0.61891530  0.06130808     0.16700
C157        C  0.23534136  0.63364508  0.46840274    -0.30900
H158        H  0.24792242  0.63168384  0.43921150     0.16700
H159        H  0.08379567  0.58443130  0.43374630     0.16700
H160        H  0.11170691  0.74433729  0.06201598     0.16800
H161        H  0.08748549  0.57324711  0.05629946     0.16800
C162        C  0.15077400  0.65647040  0.28842875     0.30600
C163        C  0.14787374  0.65402033  0.20903974     0.30600
C164        C  0.19436270  0.64575617  0.26804741    -0.05600
C165        C  0.11892516  0.62400119  0.27063733    -0.06300
C166        C  0.13790664  0.69912683  0.26783143    -0.06200
C167        C  0.19232243  0.64256331  0.22791577    -0.05600
C168        C  0.11757203  0.62224859  0.23035310    -0.06300
C169        C  0.13598850  0.69758678  0.22759555    -0.06200
C170        C  0.23201349  0.62603714  0.21588487    -0.31600
N171        N  0.25936473  0.62290464  0.24690296     0.14900
C172        C  0.23681155  0.63596928  0.27869788    -0.31600
H173        H  0.25027464  0.63768658  0.30760825     0.16800
C174        C  0.09018780  0.58864541  0.22095399    -0.30600
N175        N  0.07384750  0.57156051  0.25418185     0.13600
C176        C  0.09136485  0.59269888  0.28473550    -0.30600
C177        C  0.12198887  0.73762441  0.21458785    -0.30900
N178        N  0.11631694  0.76381514  0.24572168     0.14100
H179        H  0.11472604  0.74625138  0.18483393     0.16700
C180        C  0.12681444  0.74074755  0.27817023    -0.30900
H181        H  0.12614817  0.75353214  0.30724122     0.16700
H182        H  0.08539441  0.58506605  0.31489730     0.16700
H183        H  0.23947089  0.61508062  0.18695800     0.16800
H184        H  0.08282275  0.57688160  0.19225614     0.16800
O185        O  0.98422247  0.06851884  0.03276832    -0.73800
O186        O  0.03472679  0.95499115  0.03524035    -0.73800
O187        O  0.06723777  0.03627806  0.03210578    -0.73900
O188        O  0.95214861  0.98752903  0.03557650    -0.73900
O189        O  0.94980870  0.98802821  0.47105692    -0.73900
O190        O  0.06655255  0.03238424  0.46766838    -0.73800
O191        O  0.03118403  0.95258511  0.47083226    -0.73800
O192        O  0.98503470  0.06784018  0.46814929    -0.73900
Ni193      Ni  0.00971400  0.01192846  0.03624262     1.25400
Ni194      Ni  0.00812681  0.01014857  0.46712535     1.25400
C195        C  0.97604849  0.08669284  0.50009862     0.88400
C196        C  0.04080438  0.93481516  0.50342495     0.88300
C197        C  0.08609385  0.04188863  0.99930595     0.88300
C198        C  0.93181141  0.98014606  0.00382358     0.88500
O199        O  0.03267741  0.95272613  0.28040252    -0.73800
O200        O  0.98520546  0.06770065  0.28373567    -0.73800
O201        O  0.95087443  0.98714341  0.28182993    -0.73900
O202        O  0.06700872  0.03295979  0.28230334    -0.73900
O203        O  0.06572047  0.03662363  0.21781001    -0.73900
O204        O  0.95022311  0.98880378  0.21728594    -0.73800
O205        O  0.98313664  0.06942756  0.21917578    -0.73800
O206        O  0.03313658  0.95540163  0.21588290    -0.73900
Ni207      Ni  0.00896179  0.01005332  0.28436123     1.25400
Ni208      Ni  0.00806507  0.01263087  0.21522842     1.25400
C209        C  0.04095733  0.93514634  0.24769929     0.88400
C210        C  0.97590276  0.08731293  0.25193029     0.88300
C211        C  0.93131640  0.98046629  0.24955119     0.88300
C212        C  0.08551438  0.04238124  0.25011858     0.88500
O213        O  0.44841643  0.53552777  0.03555494    -0.73800
O214        O  0.56304004  0.48353101  0.03756945    -0.73800
O215        O  0.53145563  0.56593932  0.03650312    -0.73900
O216        O  0.48027835  0.45299564  0.03669657    -0.73900
O217        O  0.48391184  0.45189419  0.47225686    -0.73900
O218        O  0.52968387  0.56695053  0.47199088    -0.73800
O219        O  0.56491740  0.48638941  0.47302159    -0.73800
O220        O  0.44826692  0.53268956  0.47105598    -0.73900
Ni221      Ni  0.50571443  0.50952856  0.03891517     1.25400
Ni222      Ni  0.50668023  0.50948548  0.46979612     1.25400
C223        C  0.42932412  0.54239038  0.50294548     0.88400
C224        C  0.58294070  0.47676680  0.50550406     0.88300
C225        C  0.53869175  0.58525693  0.00419658     0.88300
C226        C  0.47462846  0.43337968  0.00449535     0.88500
O227        O  0.56287934  0.47832020  0.27513670    -0.73800
O228        O  0.45010441  0.53343671  0.27843152    -0.73800
O229        O  0.47930380  0.45060825  0.27606528    -0.73900
O230        O  0.53375033  0.56164325  0.27788820    -0.73900
O231        O  0.53180715  0.56473775  0.21343150    -0.73900
O232        O  0.47911608  0.45235355  0.21149759    -0.73800
O233        O  0.44845795  0.53528881  0.21394218    -0.73800
O234        O  0.56197886  0.48232278  0.21059519    -0.73900
Ni235      Ni  0.50659129  0.50595637  0.27917499     1.25400
Ni236      Ni  0.50521101  0.50877860  0.21005992     1.25400
C237        C  0.58089917  0.47121479  0.24226704     0.88400
C238        C  0.43057962  0.54336830  0.24667856     0.88300
C239        C  0.47083872  0.43285649  0.24353468     0.88300
C240        C  0.54168105  0.58166068  0.24606864     0.88500
C241        C  0.38691195  0.56463706  0.24756197    -0.04800
C242        C  0.37165566  0.58710377  0.21461160    -0.32300
C243        C  0.33054947  0.60748965  0.21436549     0.37000
C244        C  0.30303337  0.60454828  0.24708465    -0.05200
C245        C  0.31856590  0.58244236  0.28017438    -0.32200
C246        C  0.36005710  0.56289120  0.28072226     0.36900
H247        H  0.39197819  0.58954527  0.18900052     0.17300
O248        O  0.31810389  0.63069301  0.18212900    -0.59700
H249        H  0.29813093  0.57933734  0.30560348     0.17300
O250        O  0.37363206  0.54171995  0.31374238    -0.59800
H251        H  0.36311517  0.51160620  0.31095484     0.44300
H252        H  0.32365114  0.66141971  0.18862477     0.44200
C253        C  0.09772438  0.80693834  0.24551147    -0.04800
C254        C  0.07063882  0.81989443  0.27627226    -0.32300
C255        C  0.05187330  0.86125298  0.27713589     0.37000
C256        C  0.05988155  0.89089594  0.24683090    -0.05200
C257        C  0.08654515  0.87799104  0.21574242    -0.32200
C258        C  0.10573327  0.83656067  0.21507062     0.36900
H259        H  0.06322562  0.79752651  0.29957959     0.17300
O260        O  0.02513352  0.87202745  0.30755341    -0.59700
H261        H  0.09332406  0.90040485  0.19227017     0.17300
O262        O  0.13282043  0.82581861  0.18492337    -0.59800
H263        H  0.16296769  0.83125695  0.19449161     0.44300
H264        H  0.99508218  0.86464873  0.29893019     0.44200
C265        C  0.14812343  0.65563608  0.41476319    -0.04800
C266        C  0.17284241  0.62442561  0.39475821    -0.32300
C267        C  0.17341342  0.62335163  0.35417930     0.37000
C268        C  0.15007541  0.65519851  0.33266404    -0.05200
C269        C  0.11786237  0.67893973  0.35261241    -0.32200
C270        C  0.11589497  0.67855377  0.39319350     0.36900
H271        H  0.18994996  0.59904721  0.41052176     0.17300
O272        O  0.19206432  0.58823040  0.33604807    -0.59700
H273        H  0.09226184  0.69585115  0.33676755     0.17300
O274        O  0.07946147  0.69553266  0.41116179    -0.59800
H275        H  0.07331652  0.72402926  0.39875766     0.44300
H276        H  0.22139506  0.58359377  0.34798045     0.44200
C277        C  0.14566819  0.65463293  0.08268048    -0.04800
C278        C  0.18153429  0.67159084  0.10296486    -0.32300
C279        C  0.18204374  0.67307809  0.14346297     0.37000
C280        C  0.14686321  0.65553488  0.16482646    -0.05200
C281        C  0.10790733  0.64703490  0.14454269    -0.32200
C282        C  0.10668323  0.64756093  0.10385748     0.36900
H283        H  0.20889428  0.68534200  0.08738368     0.17300
O284        O  0.21499497  0.69519046  0.16176297    -0.59700
H285        H  0.07759887  0.64224394  0.16010318     0.17300
O286        O  0.06679738  0.64616170  0.08527879    -0.59800
H287        H  0.05038190  0.62173369  0.09695456     0.44300
H288        H  0.24306178  0.68333651  0.15169532     0.44200
C289        C  0.30159383  0.60288924  0.50098120    -0.04800
C290        C  0.31342398  0.57298740  0.47225059    -0.32300
C291        C  0.35472491  0.55284264  0.47264593     0.37000
C292        C  0.38511892  0.56245847  0.50212687    -0.05200
C293        C  0.37328592  0.59232241  0.03085238    -0.32200
C294        C  0.33216660  0.61281344  0.03018852     0.36900
H295        H  0.29021088  0.56457265  0.44980910     0.17300
O296        O  0.36469875  0.52328765  0.44443582    -0.59700
H297        H  0.39640187  0.60058761  0.05344234     0.17300
O298        O  0.32255412  0.64314289  0.05779375    -0.59800
H299        H  0.32829988  0.67152094  0.04522850     0.44300
H300        H  0.35669954  0.49475092  0.45558317     0.44200
C301        C  0.09484647  0.80568939  0.50172322    -0.04800
C302        C  0.10012971  0.83163644  0.03466080    -0.32300
C303        C  0.08216648  0.87343618  0.03608588     0.37000
C304        C  0.05895305  0.89033389  0.50391890    -0.05200
C305        C  0.05309909  0.86423322  0.47129398    -0.32200
C306        C  0.07003161  0.82218904  0.47022406     0.36900
H307        H  0.11871265  0.81973573  0.05931693     0.17300
O308        O  0.08783411  0.89743339  0.06897320    -0.59700
H309        H  0.03448641  0.87610537  0.44658620     0.17300
O310        O  0.06094435  0.79732741  0.43854005    -0.59800
H311        H  0.03306154  0.78256232  0.44477958     0.44300
H312        H  0.11589850  0.91285622  0.06512656     0.44200
C313        C  0.59968612  0.70880373  0.25177916    -0.04800
C314        C  0.60389627  0.68353462  0.21813329    -0.32300
C315        C  0.58481382  0.64254343  0.21553731     0.37000
C316        C  0.56209191  0.62506406  0.24741963    -0.05200
C317        C  0.55850195  0.64971433  0.28127598    -0.32200
C318        C  0.57651530  0.69119198  0.28360591     0.36900
H319        H  0.62207890  0.69546460  0.19346892     0.17300
O320        O  0.58967903  0.61945397  0.18199133    -0.59700
H321        H  0.54054199  0.63728727  0.30595180     0.17300
O322        O  0.56873552  0.71495591  0.31630760    -0.59800
H323        H  0.58719907  0.70135995  0.33681586     0.44300
H324        H  0.56644808  0.63067854  0.16435845     0.44200
C325        C  0.80245744  0.92392476  0.25177848    -0.04800
C326        C  0.81464512  0.95117883  0.22088228    -0.32300
C327        C  0.85636510  0.96998078  0.21965920     0.37000
C328        C  0.88663228  0.96211105  0.24989112    -0.05200
C329        C  0.87425569  0.93555906  0.28098471    -0.32200
C330        C  0.83295265  0.91632752  0.28204080     0.36900
H331        H  0.79178287  0.95807457  0.19759047     0.17300
O332        O  0.86662873  0.99709722  0.18944478    -0.59700
H333        H  0.89723202  0.92853394  0.30422700     0.17300
O334        O  0.82397786  0.88783782  0.31156078    -0.59800
H335        H  0.81992888  0.90597663  0.33491807     0.44300
H336        H  0.87621297  0.97773552  0.16821499     0.44200
C337        C  0.65640679  0.85519282  0.41910945    -0.04800
C338        C  0.69473225  0.84338195  0.39914540    -0.32300
C339        C  0.69577632  0.84194363  0.35860427     0.37000
C340        C  0.65797547  0.85355435  0.33698439    -0.05200
C341        C  0.61805689  0.85693499  0.35710173    -0.32200
C342        C  0.61689040  0.85721283  0.39773270     0.36900
H343        H  0.72382439  0.83340954  0.41490154     0.17300
O344        O  0.73217843  0.82481846  0.34073056    -0.59700
H345        H  0.58743829  0.85913418  0.34124554     0.17300
O346        O  0.57709277  0.85659913  0.41635527    -0.59800
H347        H  0.55946610  0.88086148  0.40529716     0.44300
H348        H  0.75790793  0.84018759  0.35143618     0.44200
C349        C  0.65336874  0.85794330  0.16911554    -0.04800
C350        C  0.69029443  0.84334349  0.14859426    -0.32300
C351        C  0.69101353  0.84318260  0.10808114     0.37000
C352        C  0.65463408  0.85939466  0.08680272    -0.05200
C353        C  0.61532490  0.86629240  0.10714827    -0.32200
C354        C  0.61414958  0.86470146  0.14789064     0.36900
H355        H  0.71862066  0.83061419  0.16394773     0.17300
O356        O  0.72584067  0.82371707  0.08968548    -0.59700
H357        H  0.58496475  0.87139697  0.09144262     0.17300
O358        O  0.57434125  0.86572570  0.16651123    -0.59800
H359        H  0.55730700  0.89018366  0.15504238     0.44300
H360        H  0.75258285  0.83850837  0.09902249     0.44200
C361        C  0.59648444  0.71239177  0.00529036    -0.04800
C362        C  0.57132031  0.69890592  0.47343487    -0.32300
C363        C  0.55257231  0.65774864  0.47255062     0.37000
C364        C  0.55806375  0.62910755  0.00420004    -0.05200
C365        C  0.58285552  0.64254129  0.03618861    -0.32200
C366        C  0.60255457  0.68332494  0.03667603     0.36900
H367        H  0.56559274  0.72050656  0.44911068     0.17300
O368        O  0.52867575  0.64612656  0.44062391    -0.59700
H369        H  0.58803773  0.62087112  0.06061777     0.17300
O370        O  0.62859803  0.69371811  0.06757879    -0.59800
H371        H  0.65869869  0.68491070  0.05993497     0.44300
H372        H  0.49786955  0.65382003  0.44690770     0.44200
C373        C  0.80150333  0.92693650  0.00386375    -0.04800
C374        C  0.83007370  0.91928989  0.03526917    -0.32300
C375        C  0.87217905  0.93692157  0.03602758     0.37000
C376        C  0.88689070  0.96240528  0.00474465    -0.05200
C377        C  0.85824872  0.97075605  0.47364422    -0.32200
C378        C  0.81587638  0.95354093  0.47304685     0.36900
H379        H  0.82019028  0.89846428  0.05898333     0.17300
O380        O  0.89942886  0.92705396  0.06655173    -0.59700
H381        H  0.86857869  0.99109889  0.44970785     0.17300
O382        O  0.78829101  0.96457183  0.44308423    -0.59800
H383        H  0.80066785  0.95015372  0.41988609     0.44300
H384        H  0.89180331  0.94829248  0.08693644     0.44200
C385        C  0.48563525  0.04586205  0.25413663    -0.04800
C386        C  0.48537914  0.01403512  0.28333060    -0.32300
C387        C  0.51799492  0.98182731  0.28501638     0.37000
C388        C  0.55203846  0.98131608  0.25735253    -0.05200
C389        C  0.55264185  0.01373837  0.22861214    -0.32200
C390        C  0.51972923  0.04559034  0.22668565     0.36900
H391        H  0.45899765  0.01341408  0.30427938     0.17300
O392        O  0.51454458  0.94940047  0.31214979    -0.59700
H393        H  0.57875967  0.01435571  0.20742910     0.17300
O394        O  0.52208222  0.07731569  0.19879020    -0.59800
H395        H  0.51421789  0.06292834  0.17415661     0.44300
H396        H  0.52280761  0.96280363  0.33711371     0.44200
C397        C  0.41481450  0.30529556  0.24540317    -0.04800
C398        C  0.44274725  0.31780991  0.21504336    -0.32300
C399        C  0.46096532  0.35926037  0.21386988     0.37000
C400        C  0.45138583  0.38918991  0.24335381    -0.05200
C401        C  0.42363992  0.37676748  0.27374616    -0.32200
C402        C  0.40496048  0.33557453  0.27469595     0.36900
H403        H  0.45137096  0.29506833  0.19253205     0.17300
O404        O  0.48902251  0.36969494  0.18431507    -0.59700
H405        H  0.41573726  0.39940167  0.29660543     0.17300
O406        O  0.37654131  0.32566758  0.30410126    -0.59800
H407        H  0.34696831  0.33294000  0.29383649     0.44300
H408        H  0.51877701  0.36267542  0.19436489     0.44200
C409        C  0.21551891  0.09541471  0.24851221    -0.04800
C410        C  0.20279323  0.06745291  0.27862469    -0.32300
C411        C  0.16052060  0.05025691  0.27977401     0.37000
C412        C  0.13023879  0.06037265  0.25010205    -0.05200
C413        C  0.14291634  0.08823503  0.21995267    -0.32200
C414        C  0.18500237  0.10593278  0.21907759     0.36900
H415        H  0.22589460  0.05852645  0.30121845     0.17300
O416        O  0.14978540  0.02223784  0.30919421    -0.59700
H417        H  0.11981340  0.09707205  0.19729349     0.17300
O418        O  0.19510200  0.13537259  0.19059888    -0.59800
H419        H  0.19757530  0.11832957  0.16643156     0.44300
H420        H  0.14200910  0.04096664  0.33141683     0.44200
C421        C  0.48898495  0.05228719  0.49578696    -0.04800
C422        C  0.48896639  0.02055000  0.46688772    -0.32300
C423        C  0.52018426  0.98693352  0.46696835     0.37000
C424        C  0.55257640  0.98465270  0.49626275    -0.05200
C425        C  0.55320735  0.01704044  0.02462205    -0.32200
C426        C  0.52179107  0.05050022  0.02465724     0.36900
H427        H  0.46363103  0.02090942  0.44486388     0.17300
O428        O  0.51677700  0.95488373  0.43985250    -0.59700
H429        H  0.57822439  0.01643318  0.04691970     0.17300
O430        O  0.52432340  0.08216724  0.05223710    -0.59800
H431        H  0.51575423  0.06798316  0.07692295     0.44300
H432        H  0.52671284  0.96815604  0.41518481     0.44200
C433        C  0.36134741  0.15792077  0.41496048    -0.04800
C434        C  0.36661288  0.11835799  0.39543834    -0.32300
C435        C  0.36522326  0.11638592  0.35500765     0.37000
C436        C  0.36110240  0.15482973  0.33287147    -0.05200
C437        C  0.34705471  0.19226721  0.35238304    -0.32200
C438        C  0.34643666  0.19396958  0.39298218     0.36900
H439        H  0.37079617  0.08846402  0.41163898     0.17300
O440        O  0.36640360  0.07655549  0.33769805    -0.59700
H441        H  0.33470844  0.21995860  0.33628585     0.17300
O442        O  0.32661979  0.22874613  0.41063919    -0.59800
H443        H  0.33982414  0.25514521  0.39918726     0.44300
H444        H  0.33532032  0.06769651  0.33552188     0.44200
C445        C  0.36554459  0.15567770  0.08277773    -0.04800
C446        C  0.40543070  0.15251636  0.10315002    -0.32300
C447        C  0.40670687  0.15274339  0.14375500     0.37000
C448        C  0.36718980  0.15486277  0.16498454    -0.05200
C449        C  0.32912147  0.16738421  0.14460078    -0.32200
C450        C  0.32813606  0.16852669  0.10400779     0.36900
H451        H  0.43622240  0.15237339  0.08772647     0.17300
O452        O  0.44654121  0.15599804  0.16217562    -0.59700
H453        H  0.30024451  0.17805293  0.16010860     0.17300
O454        O  0.29223290  0.18627192  0.08545930    -0.59800
H455        H  0.26601055  0.17229870  0.09682233     0.44300
H456        H  0.46614139  0.13378117  0.15059147     0.44200
C457        C  0.42071986  0.30458196  0.00488028    -0.04800
C458        C  0.44883977  0.31800303  0.47496257    -0.32300
C459        C  0.46649830  0.35968887  0.47441197     0.37000
C460        C  0.45703874  0.38881173  0.00459148    -0.05200
C461        C  0.43005427  0.37514892  0.03510276    -0.32200
C462        C  0.41164999  0.33371144  0.03531668     0.36900
H463        H  0.45732487  0.29616113  0.45173522     0.17300
O464        O  0.49405715  0.37110803  0.44476916    -0.59700
H465        H  0.42203988  0.39714793  0.05841676     0.17300
O466        O  0.38264966  0.32318716  0.06411561    -0.59800
H467        H  0.40080265  0.31886297  0.08772864     0.44300
H468        H  0.47449140  0.37984882  0.42307103     0.44200
C469        C  0.21643890  0.09457630  0.99763315    -0.04800
C470        C  0.20268845  0.06697343  0.46791486    -0.32300
C471        C  0.16036124  0.04967310  0.46794102     0.37000
C472        C  0.13089129  0.05989691  0.99806922    -0.05200
C473        C  0.14445050  0.08797403  0.02743921    -0.32200
C474        C  0.18642605  0.10579382  0.02706357     0.36900
H475        H  0.22516017  0.05809141  0.44500088     0.17300
O476        O  0.14852646  0.02218241  0.43876275    -0.59700
H477        H  0.12206395  0.09692690  0.05042828     0.17300
O478        O  0.19732155  0.13497168  0.05516687    -0.59800
H479        H  0.19221557  0.16387273  0.04322590     0.44300
H480        H  0.15547959  0.99267597  0.44870983     0.44200
C481        C  0.97989982  0.47107873  0.25531064    -0.04800
C482        C  0.97374678  0.50780059  0.27844719    -0.32300
C483        C  0.00504786  0.54057859  0.27909261     0.37000
C484        C  0.04302705  0.53687167  0.25624894    -0.05200
C485        C  0.04967952  0.49968658  0.23383359    -0.32200
C486        C  0.01859965  0.46672783  0.23349340     0.36900
H487        H  0.94386272  0.51167881  0.29502201     0.17300
O488        O  0.99686909  0.57744622  0.29990315    -0.59700
H489        H  0.07908947  0.49637268  0.21653066     0.17300
O490        O  0.02629796  0.43046343  0.21174541    -0.59800
H491        H  0.03634227  0.40798699  0.23047451     0.44300
H492        H  0.00340983  0.56954064  0.32720556     0.44200
C493        C  0.91637965  0.21386984  0.25183590    -0.04800
C494        C  0.94568481  0.20184802  0.28155514    -0.32300
C495        C  0.96529117  0.16067895  0.28215968     0.37000
C496        C  0.95569941  0.13084862  0.25267709    -0.05200
C497        C  0.92605963  0.14273961  0.22327045    -0.32200
C498        C  0.90605937  0.18358104  0.22296710     0.36900
H499        H  0.95416061  0.22480823  0.30387040     0.17300
O500        O  0.99441687  0.15034431  0.31118137    -0.59700
H501        H  0.91770990  0.11994892  0.20074706     0.17300
O502        O  0.87589753  0.19328634  0.19464578    -0.59800
H503        H  0.84693111  0.18767533  0.20660924     0.44300
H504        H  0.02366748  0.15795533  0.30076514     0.44200
C505        C  0.70657493  0.40799931  0.23984740    -0.04800
C506        C  0.69654436  0.44104230  0.21300355    -0.32300
C507        C  0.65557624  0.46165995  0.21326788     0.37000
C508        C  0.62393795  0.44947917  0.24081370    -0.05200
C509        C  0.63346193  0.41581630  0.26702556    -0.32200
C510        C  0.67411883  0.39462040  0.26625870     0.36900
H511        H  0.72111144  0.45205892  0.19269036     0.17300
O512        O  0.64734533  0.49460005  0.18730952    -0.59700
H513        H  0.60904328  0.40548345  0.28780903     0.17300
O514        O  0.68169133  0.36075105  0.29132648    -0.59800
H515        H  0.67474393  0.33435081  0.27635246     0.44300
H516        H  0.65439264  0.52159258  0.20133622     0.44200
C517        C  0.97549962  0.47429219  0.49486477    -0.04800
C518        C  0.00877668  0.47248325  0.46684737    -0.32300
C519        C  0.04228292  0.50316656  0.46649415     0.37000
C520        C  0.04237274  0.53646310  0.49413492    -0.05200
C521        C  0.00871536  0.53852823  0.02170037    -0.32200
C522        C  0.97538936  0.50801601  0.02210597     0.36900
H523        H  0.00931941  0.44659947  0.44583928     0.17300
O524        O  0.07523761  0.49972698  0.43972072    -0.59700
H525        H  0.00790890  0.56445775  0.04267008     0.17300
O526        O  0.94246084  0.51189592  0.04888531    -0.59800
H527        H  0.91826210  0.52726114  0.03516743     0.44300
H528        H  0.09864964  0.48246836  0.45274600     0.44200
C529        C  0.85992095  0.36649326  0.33231758    -0.04800
C530        C  0.89391641  0.34516690  0.35257517    -0.32300
C531        C  0.89569062  0.34525016  0.39312066     0.37000
C532        C  0.86171156  0.36541905  0.41434160    -0.05200
C533        C  0.83498881  0.39518856  0.39407142    -0.32200
C534        C  0.83449090  0.39663021  0.35342454     0.36900
H535        H  0.92059437  0.33003587  0.33693534     0.17300
O536        O  0.93294305  0.33025578  0.41153322    -0.59700
H537        H  0.81657000  0.41951991  0.40957628     0.17300
O538        O  0.81431123  0.43100343  0.33492537    -0.59800
H539        H  0.78514794  0.43491008  0.34719889     0.44300
H540        H  0.94080652  0.30217639  0.39946020     0.44200
C541        C  0.86349394  0.36487628  0.16449681    -0.04800
C542        C  0.84905578  0.32797592  0.14466881    -0.32300
C543        C  0.84732138  0.32693847  0.10411680     0.37000
C544        C  0.86178321  0.36294094  0.08232206    -0.05200
C545        C  0.86718829  0.40214708  0.10218432    -0.32200
C546        C  0.86750317  0.40357330  0.14276998     0.36900
H547        H  0.83696819  0.30027981  0.16060083     0.17300
O548        O  0.82707533  0.29279587  0.08626675    -0.59700
H549        H  0.86914917  0.43238086  0.08632803     0.17300
O550        O  0.86679943  0.44314357  0.16077340    -0.59800
H551        H  0.89114396  0.46016851  0.14946959     0.44300
H552        H  0.84016883  0.26593787  0.09743631     0.44200
C553        C  0.91788176  0.21323870  0.49728042    -0.04800
C554        C  0.90450767  0.18290446  0.02514139    -0.32300
C555        C  0.92299614  0.14137610  0.02616172     0.37000
C556        C  0.95564538  0.12990446  0.49922984    -0.05200
C557        C  0.96867719  0.16004083  0.47108555    -0.32200
C558        C  0.95038094  0.20165606  0.47024930     0.36900
H559        H  0.87934477  0.19144466  0.04590586     0.17300
O560        O  0.90844518  0.11205878  0.05315594    -0.59700
H561        H  0.99393221  0.15166111  0.45033447     0.17300
O562        O  0.96545759  0.23116939  0.44372213    -0.59800
H563        H  0.98939573  0.24666895  0.45711694     0.44300
H564        H  0.88491226  0.09576021  0.03994390     0.44200
C565        C  0.70914352  0.41447545  0.50340083    -0.04800
C566        C  0.69923375  0.44814003  0.47721629    -0.32300
C567        C  0.65865323  0.46937330  0.47829006     0.37000
C568        C  0.62699966  0.45685937  0.50570353    -0.05200
C569        C  0.63710293  0.42373907  0.03240389    -0.32200
C570        C  0.67772918  0.40231873  0.03117480     0.36900
H571        H  0.72340490  0.45848133  0.45623891     0.17300
O572        O  0.65047215  0.50268543  0.45271291    -0.59700
H573        H  0.61295675  0.41356306  0.05349121     0.17300
O574        O  0.68602643  0.36894076  0.05660930    -0.59800
H575        H  0.67944501  0.34218905  0.04201246     0.44300
H576        H  0.65845240  0.52937732  0.46680643     0.44200
C577        C  0.86281425  0.36254045  0.53807524     0.30600
C578        C  0.86028443  0.36322107  0.95855296     0.30600
C579        C  0.81829216  0.37304445  0.51960558    -0.05600
C580        C  0.89342101  0.39472881  0.51767420    -0.06300
C581        C  0.87614836  0.31998835  0.51820778    -0.06200
C582        C  0.81654248  0.37316889  0.97925316    -0.05600
C583        C  0.89171703  0.39519992  0.97741553    -0.06300
C584        C  0.87341312  0.31981655  0.97785273    -0.06200
C585        C  0.77432980  0.38517090  0.96927501    -0.31600
N586        N  0.75151918  0.39386706  0.50210091     0.14900
C587        C  0.77801592  0.38624759  0.53303802    -0.31600
H588        H  0.76951394  0.39242290  0.56292417     0.16800
C589        C  0.92191482  0.42469149  0.96446383    -0.30600
N590        N  0.94211206  0.44187829  0.99575559     0.13600
C591        C  0.92572073  0.42312042  0.52823345    -0.30600
C592        C  0.88609063  0.27911683  0.96597261    -0.30900
N593        N  0.89933635  0.25603317  0.49746807     0.14100
H594        H  0.88612252  0.26705273  0.93665296     0.16700
C595        C  0.89387483  0.28073499  0.52939106    -0.30900
H596        H  0.90376500  0.27120673  0.55833718     0.16700
H597        H  0.93761264  0.42887675  0.55725624     0.16700
H598        H  0.76097502  0.38851118  0.94038031     0.16800
H599        H  0.92876520  0.43298027  0.93458632     0.16800
C600        C  0.86404304  0.36454981  0.70873063     0.30600
C601        C  0.85932971  0.36461902  0.78812038     0.30600
C602        C  0.87581121  0.32140770  0.72913095    -0.05600
C603        C  0.89504181  0.39571596  0.72967096    -0.06300
C604        C  0.81920655  0.37551545  0.72612768    -0.06200
C605        C  0.87274001  0.32116386  0.76946159    -0.05600
C606        C  0.89173129  0.39620660  0.76984601    -0.06300
C607        C  0.81631985  0.37476487  0.76634089    -0.06200
C608        C  0.88563749  0.28048640  0.78196173    -0.31600
N609        N  0.89791229  0.25687722  0.75073153     0.14900
C610        C  0.89264765  0.28175871  0.71847201    -0.31600
H611        H  0.90230629  0.27228314  0.68959719     0.23600
C612        C  0.92297550  0.42384809  0.78367902    -0.30600
N613        N  0.94599682  0.43933183  0.75314682     0.13600
C614        C  0.92993713  0.42171657  0.72016350    -0.30600
C615        C  0.77307896  0.38287116  0.77527734    -0.30900
N616        N  0.75050690  0.39082191  0.74199379     0.14100
H617        H  0.75906357  0.38392569  0.80392494     0.16700
C618        C  0.77842785  0.38601600  0.71172692    -0.30900
H619        H  0.76983294  0.39035874  0.68151004     0.16700
H620        H  0.94302757  0.42730236  0.69151253     0.16700
H621        H  0.88663720  0.26882922  0.81156186     0.16800
H622        H  0.92932561  0.43133069  0.81374582     0.16800
C623        C  0.36530567  0.15475057  0.53851159     0.30600
C624        C  0.36450083  0.15824706  0.95916221     0.30600
C625        C  0.37009525  0.19991588  0.52038954    -0.05600
C626        C  0.40161378  0.12840817  0.51802748    -0.06300
C627        C  0.32406338  0.13714255  0.51861619    -0.06200
C628        C  0.37031361  0.20194580  0.97996723    -0.05600
C629        C  0.40176009  0.13071460  0.97768388    -0.06300
C630        C  0.32342401  0.13972842  0.97847421    -0.06200
C631        C  0.39097523  0.24020478  0.97040676    -0.31600
N632        N  0.40020825  0.26256085  0.00318073     0.14900
C633        C  0.38893854  0.23728799  0.53380319    -0.31600
H634        H  0.39753466  0.24348429  0.56363678     0.16800
C635        C  0.43547356  0.10407112  0.96515049    -0.30600
N636        N  0.45476717  0.08489607  0.99650460     0.13600
C637        C  0.43362294  0.09885117  0.52871096    -0.30600
C638        C  0.28372579  0.12381737  0.96615687    -0.30900
N639        N  0.26047799  0.11117396  0.99775174     0.14100
H640        H  0.27232616  0.12230096  0.93649541     0.16700
C641        C  0.28551456  0.11785708  0.52970714    -0.30900
H642        H  0.27648463  0.10874899  0.55888121     0.16700
H643        H  0.43954124  0.08641785  0.55760194     0.16700
H644        H  0.40074672  0.24990421  0.94159783     0.16800
H645        H  0.44486037  0.09833846  0.93541464     0.16800
C646        C  0.36447420  0.15475537  0.78870131     0.30600
C647        C  0.36626567  0.15307307  0.70923827     0.30600
C648        C  0.37389188  0.19815867  0.76822249    -0.05600
C649        C  0.39986815  0.12529946  0.77050971    -0.06300
C650        C  0.32237485  0.13986337  0.76865171    -0.06200
C651        C  0.37421974  0.19725128  0.72795241    -0.05600
C652        C  0.39981689  0.12333959  0.73015258    -0.06300
C653        C  0.32328742  0.13845762  0.72841854    -0.06200
C654        C  0.38810032  0.23712169  0.71512141    -0.31600
N655        N  0.39702367  0.26211953  0.74639900     0.14900
C656        C  0.38959820  0.23808448  0.77881742    -0.31600
H657        H  0.39804716  0.24781945  0.80788237     0.16800
C658        C  0.43039768  0.09232752  0.71999830    -0.30600
N659        N  0.45116843  0.07799094  0.75249963     0.13600
C660        C  0.43292468  0.09805642  0.78345929    -0.30600
C661        C  0.28417857  0.12074904  0.71671107    -0.30900
N662        N  0.25898738  0.11331937  0.74844538     0.14100
H663        H  0.27536096  0.11225384  0.68741138     0.16700
C664        C  0.28229729  0.12458132  0.78036487    -0.30900
H665        H  0.27106709  0.12162299  0.80996716     0.16700
H666        H  0.44311743  0.09302300  0.81318982     0.16700
H667        H  0.39290210  0.24655808  0.68520438     0.16800
H668        H  0.43617229  0.07991935  0.69125246     0.16800
C669        C  0.65508734  0.86150664  0.54251673     0.30600
C670        C  0.65689724  0.85903744  0.96321185     0.30600
C671        C  0.64092542  0.81902983  0.52383731    -0.05600
C672        C  0.62571425  0.89532227  0.52151542    -0.06300
C673        C  0.69994833  0.87047959  0.52353882    -0.06200
C674        C  0.64204684  0.81778513  0.98382907    -0.05600
C675        C  0.62714870  0.89424005  0.98112804    -0.06300
C676        C  0.70110884  0.86861019  0.98307692    -0.06200
C677        C  0.62688853  0.77796602  0.97279106    -0.31600
N678        N  0.61584540  0.75499104  0.50506436     0.14900
C679        C  0.62407335  0.78022351  0.53643347    -0.31600
H680        H  0.61661046  0.77208815  0.56618120     0.16800
C681        C  0.60196224  0.92835458  0.96763586    -0.30600
N682        N  0.58360744  0.94903422  0.49828337     0.13600
C683        C  0.59870959  0.92966797  0.53133033    -0.30600
C684        C  0.73778103  0.89120427  0.97148575    -0.30900
N685        N  0.75937119  0.90582602  0.50314346     0.14100
H686        H  0.74714201  0.89755856  0.94190320     0.16700
C687        C  0.73532240  0.89510000  0.53472727    -0.30900
H688        H  0.74175920  0.90653069  0.56372611     0.16700
H689        H  0.59053470  0.93990390  0.56034380     0.16700
H690        H  0.62382829  0.76683581  0.94327716     0.16800
H691        H  0.59828318  0.93814158  0.93769007     0.16800
C692        C  0.65787340  0.85703880  0.79275966     0.30600
C693        C  0.65511523  0.85929718  0.71340396     0.30600
C694        C  0.64262808  0.81572515  0.77277140    -0.05600
C695        C  0.62787953  0.89213947  0.77458322    -0.06300
C696        C  0.70162223  0.86675799  0.77252718    -0.06200
C697        C  0.64070119  0.81700133  0.73276070    -0.05600
C698        C  0.62680163  0.89361424  0.73421914    -0.06300
C699        C  0.70066918  0.86722422  0.73196318    -0.06200
C700        C  0.62482181  0.77772652  0.72081172    -0.31600
N701        N  0.61750017  0.75221593  0.75251077     0.14900
C702        C  0.62911885  0.77533571  0.78438033    -0.31600
H703        H  0.62879891  0.76392934  0.81399240     0.16800
C704        C  0.60057892  0.92839929  0.72395605    -0.30600
N705        N  0.58422599  0.94678662  0.75659035     0.13600
C706        C  0.60167065  0.92553102  0.78767054    -0.30600
C707        C  0.73723335  0.89004301  0.72002737    -0.30900
N708        N  0.76043163  0.90255904  0.75159356     0.14100
H709        H  0.74525866  0.89857109  0.69047334     0.16700
C710        C  0.73708309  0.89124867  0.78333885    -0.30900
H711        H  0.74345906  0.90294782  0.81221537     0.16700
H712        H  0.59637545  0.93423990  0.81757751     0.16700
H713        H  0.61815517  0.76900749  0.69110810     0.16800
H714        H  0.59363539  0.93958959  0.69485587     0.16800
C715        C  0.14942422  0.65626730  0.95900739     0.30600
C716        C  0.14726909  0.65338465  0.53847214     0.30600
C717        C  0.13591671  0.69843635  0.97942350    -0.05600
C718        C  0.11901506  0.62256962  0.97719237    -0.06300
C719        C  0.19360530  0.64608939  0.97927451    -0.06200
C720        C  0.13358717  0.69638948  0.51955892    -0.05600
C721        C  0.11862680  0.62039616  0.51744469    -0.06300
C722        C  0.19227407  0.64404941  0.51969788    -0.06200
C723        C  0.11885482  0.73597819  0.53229743    -0.31600
N724        N  0.11324335  0.76251295  0.00106970     0.14900
C725        C  0.12568958  0.74035589  0.96899011    -0.31600
H726        H  0.12786706  0.75393223  0.94015825     0.16800
C727        C  0.09313095  0.58570368  0.52742435    -0.30600
N728        N  0.07599575  0.56860652  0.99471562     0.13600
C729        C  0.09195747  0.59058520  0.96371063    -0.30600
C730        C  0.23235656  0.62816035  0.53197682    -0.30900
N731        N  0.25849377  0.62236784  0.00061020     0.14100
H732        H  0.24099917  0.61891606  0.56130723     0.16700
C733        C  0.23533887  0.63364229  0.96840330    -0.30900
H734        H  0.24792023  0.63168083  0.93921217     0.16700
H735        H  0.08379233  0.58443296  0.93374614     0.16700
H736        H  0.11170556  0.74433546  0.56201635     0.16800
H737        H  0.08749058  0.57324486  0.55629962     0.16800
C738        C  0.15077233  0.65646989  0.78842865     0.30600
C739        C  0.14787320  0.65401924  0.70903965     0.30600
C740        C  0.19436125  0.64575522  0.76804785    -0.05600
C741        C  0.11892355  0.62400073  0.77063710    -0.06300
C742        C  0.13790553  0.69912625  0.76783093    -0.06200
C743        C  0.19232155  0.64256216  0.72791622    -0.05600
C744        C  0.11757100  0.62224778  0.73035286    -0.06300
C745        C  0.13598791  0.69758588  0.72759505    -0.06200
C746        C  0.23201290  0.62603630  0.71588578    -0.31600
N747        N  0.25936372  0.62290394  0.74690418     0.14900
C748        C  0.23680995  0.63596839  0.77869885    -0.31600
H749        H  0.25027252  0.63768566  0.80760942     0.16800
C750        C  0.09018690  0.58864449  0.72095369    -0.30600
N751        N  0.07384609  0.57155990  0.75418148     0.13600
C752        C  0.09136300  0.59269857  0.78473518    -0.30600
C753        C  0.12198868  0.73762349  0.71458693    -0.30900
N754        N  0.11631651  0.76381450  0.74572050     0.14100
H755        H  0.11472624  0.74625026  0.68483289     0.16700
C756        C  0.12681357  0.74074716  0.77816928    -0.30900
H757        H  0.12614707  0.75353210  0.80724013     0.16700
H758        H  0.08539215  0.58506602  0.81489696     0.16700
H759        H  0.23947081  0.61507998  0.68695895     0.16800
H760        H  0.08282232  0.57688037  0.69225585     0.16800
O761        O  0.98421824  0.06851704  0.53276857    -0.73800
O762        O  0.03472278  0.95498931  0.53524065    -0.73800
O763        O  0.06723364  0.03627638  0.53210642    -0.73900
O764        O  0.95214449  0.98752734  0.53557650    -0.73900
O765        O  0.94981238  0.98802997  0.97105694    -0.73900
O766        O  0.06655620  0.03238601  0.96766774    -0.73800
O767        O  0.03118761  0.95258692  0.97083196    -0.73800
O768        O  0.98503830  0.06784202  0.96814903    -0.73900
Ni769      Ni  0.00970988  0.01192666  0.53624292     1.25400
Ni770      Ni  0.00813043  0.01015039  0.96712505     1.25400
C771        C  0.97605230  0.08669461  0.00009845     0.88400
C772        C  0.04080809  0.93481698  0.00342464     0.88300
C773        C  0.08608991  0.04188708  0.49930667     0.88300
C774        C  0.93180741  0.98014462  0.50382348     0.88500
O775        O  0.03267743  0.95272550  0.78040120    -0.73800
O776        O  0.98520508  0.06769992  0.78373473    -0.73800
O777        O  0.95087438  0.98714235  0.78182807    -0.73900
O778        O  0.06700841  0.03295934  0.78230302    -0.73900
O779        O  0.06572091  0.03662391  0.71780972    -0.73900
O780        O  0.95022378  0.98880314  0.71728409    -0.73800
O781        O  0.98313691  0.06942725  0.71917482    -0.73800
O782        O  0.03313748  0.95540159  0.71588160    -0.73900
Ni783      Ni  0.00896157  0.01005259  0.78436010     1.25400
Ni784      Ni  0.00806567  0.01263071  0.71522731     1.25400
C785        C  0.04095770  0.93514598  0.74769791     0.88400
C786        C  0.97590273  0.08731242  0.75192937     0.88300
C787        C  0.93131680  0.98046513  0.74954913     0.88300
C788        C  0.08551435  0.04238141  0.75011854     0.88500
O789        O  0.44841727  0.53552572  0.53555188    -0.73800
O790        O  0.56304076  0.48352920  0.53756655    -0.73800
O791        O  0.53145610  0.56593718  0.53650016    -0.73900
O792        O  0.48027923  0.45299358  0.53669351    -0.73900
O793        O  0.48391108  0.45189641  0.97225992    -0.73900
O794        O  0.52968289  0.56695271  0.97199388    -0.73800
O795        O  0.56491657  0.48639158  0.97302451    -0.73800
O796        O  0.44826597  0.53269134  0.97105904    -0.73900
Ni797      Ni  0.50571514  0.50952649  0.53891214     1.25400
Ni798      Ni  0.50667936  0.50948762  0.96979916     1.25400
C799        C  0.42932304  0.54239185  0.00294854     0.88400
C800        C  0.58293984  0.47676851  0.00550688     0.88300
C801        C  0.53869236  0.58525476  0.50419366     0.88300
C802        C  0.47462925  0.43337753  0.50449234     0.88500
O803        O  0.56287916  0.47832029  0.77513822    -0.73800
O804        O  0.45010397  0.53343655  0.77843351    -0.73800
O805        O  0.47930378  0.45060812  0.77606689    -0.73900
O806        O  0.53375002  0.56164331  0.77788992    -0.73900
O807        O  0.53180656  0.56473786  0.71343322    -0.73900
O808        O  0.47911555  0.45235388  0.71149920    -0.73800
O809        O  0.44845735  0.53528899  0.71394418    -0.73800
O810        O  0.56197829  0.48232299  0.71059672    -0.73900
Ni811      Ni  0.50659105  0.50595635  0.77917672     1.25400
Ni812      Ni  0.50521042  0.50877882  0.71006165     1.25400
C813        C  0.58089876  0.47121489  0.74226847     0.88400
C814        C  0.43057909  0.54336834  0.74668061     0.88300
C815        C  0.47083854  0.43285659  0.74353623     0.88300
C816        C  0.54168067  0.58166070  0.74607032     0.88500
C817        C  0.38691145  0.56463727  0.74756406    -0.04800
C818        C  0.37165535  0.58710416  0.71461370    -0.32300
C819        C  0.33054903  0.60748981  0.71436738     0.37000
C820        C  0.30303261  0.60454810  0.74708630    -0.05200
C821        C  0.31856507  0.58244235  0.78017618    -0.32200
C822        C  0.36005638  0.56289132  0.78072424     0.36900
H823        H  0.39197808  0.58954593  0.68900276     0.17300
O824        O  0.31810366  0.63069332  0.68213093    -0.59700
H825        H  0.29812994  0.57933725  0.80560517     0.17300
O826        O  0.37363117  0.54171995  0.81374437    -0.59800
H827        H  0.36311393  0.51160645  0.81095694     0.44300
H828        H  0.32364988  0.66142024  0.68862730     0.44200
C829        C  0.09772378  0.80693762  0.74550994    -0.04800
C830        C  0.07063751  0.81989355  0.77627030    -0.32300
C831        C  0.05187223  0.86125218  0.77713391     0.37000
C832        C  0.05988149  0.89089542  0.74682937    -0.05200
C833        C  0.08654548  0.87799054  0.71574113    -0.32200
C834        C  0.10573332  0.83656004  0.71506930     0.36900
H835        H  0.06322369  0.79752546  0.79957735     0.17300
O836        O  0.02513164  0.87202648  0.80755096    -0.59700
H837        H  0.09332494  0.90040448  0.69226911     0.17300
O838        O  0.13282076  0.82581795  0.68492227    -0.59800
H839        H  0.16296795  0.83125699  0.69449054     0.44300
H840        H  0.99508070  0.86464847  0.79892700     0.44200
C841        C  0.14812162  0.65563604  0.91476314    -0.04800
C842        C  0.17283961  0.62442479  0.89475817    -0.32300
C843        C  0.17341048  0.62335068  0.85417924     0.37000
C844        C  0.15007342  0.65519818  0.83266395    -0.05200
C845        C  0.11786119  0.67894045  0.85261230    -0.32200
C846        C  0.11589389  0.67855475  0.89319341     0.36900
H847        H  0.18994651  0.59904600  0.91052176     0.17300
O848        O  0.19206040  0.58822899  0.83604794    -0.59700
H849        H  0.09226108  0.69585247  0.83676742     0.17300
O850        O  0.07946108  0.69553496  0.91116175    -0.59800
H851        H  0.07331696  0.72403179  0.89875729     0.44300
H852        H  0.22139120  0.58359176  0.84798009     0.44200
C853        C  0.14566999  0.65463185  0.58268039    -0.04800
C854        C  0.18153555  0.67159003  0.60296526    -0.32300
C855        C  0.18204414  0.67307738  0.64346337     0.37000
C856        C  0.14686350  0.65553358  0.66482636    -0.05200
C857        C  0.10790815  0.64703296  0.64454206    -0.32200
C858        C  0.10668474  0.64755917  0.60385686     0.36900
H859        H  0.20889562  0.68534156  0.58738446     0.17300
O860        O  0.21499459  0.69519039  0.66176384    -0.59700
H861        H  0.07759947  0.64224170  0.66010212     0.17300
O862        O  0.06679920  0.64615949  0.58527767    -0.59800
H863        H  0.05038390  0.62173119  0.59695307     0.44300
H864        H  0.24306176  0.68333654  0.65169696     0.44200
C865        C  0.30159134  0.60288758  0.00098277    -0.04800
C866        C  0.31342189  0.57298447  0.97225338    -0.32300
C867        C  0.35472320  0.55284050  0.97264944     0.37000
C868        C  0.38511727  0.56245865  0.00212974    -0.05200
C869        C  0.37328810  0.59232121  0.53085055    -0.32200
C870        C  0.33216925  0.61281318  0.53018736     0.36900
H871        H  0.29020878  0.56456820  0.94981237     0.17300
O872        O  0.36469741  0.52328399  0.94444066    -0.59700
H873        H  0.39640414  0.60058488  0.55344091     0.17300
O874        O  0.32255742  0.64314155  0.55779368    -0.59800
H875        H  0.32830411  0.67152018  0.54522943     0.44300
H876        H  0.35669902  0.49474789  0.95558935     0.44200
C877        C  0.09484942  0.80569108  0.00172280    -0.04800
C878        C  0.10012541  0.83163442  0.53466162    -0.32300
C879        C  0.08216197  0.87343409  0.53608662     0.37000
C880        C  0.05895655  0.89033568  0.00391858    -0.05200
C881        C  0.05310126  0.86423463  0.97129412    -0.32200
C882        C  0.07003351  0.82219036  0.97022418     0.36900
H883        H  0.11870761  0.81973358  0.55931812     0.17300
O884        O  0.08782857  0.89743101  0.56897426    -0.59700
H885        H  0.03448761  0.87610651  0.94658681     0.17300
O886        O  0.06094472  0.79732816  0.93854087    -0.59800
H887        H  0.03306129  0.78256456  0.94478099     0.44300
H888        H  0.11589323  0.91285362  0.56512853     0.44200
C889        C  0.59968560  0.70880369  0.75177993    -0.04800
C890        C  0.60389635  0.68353403  0.71813446    -0.32300
C891        C  0.58481417  0.64254271  0.71553887     0.37000
C892        C  0.56209165  0.62506396  0.74742111    -0.05200
C893        C  0.55850099  0.64971483  0.78127704    -0.32200
C894        C  0.57651422  0.69119255  0.78360660     0.36900
H895        H  0.62207935  0.69546369  0.69347017     0.17300
O896        O  0.58968032  0.61945248  0.68199340    -0.59700
H897        H  0.54054048  0.63728823  0.80595273     0.17300
O898        O  0.56873356  0.71495734  0.81630760    -0.59800
H899        H  0.58719658  0.70136162  0.83681677     0.44300
H900        H  0.56644950  0.63067624  0.66436001     0.44200
C901        C  0.80245793  0.92392296  0.75177618    -0.04800
C902        C  0.81464591  0.95117639  0.72087959    -0.32300
C903        C  0.85636596  0.96997825  0.71965641     0.37000
C904        C  0.88663287  0.96210928  0.74988870    -0.05200
C905        C  0.87425613  0.93555755  0.78098246    -0.32200
C906        C  0.83295311  0.91632597  0.78203855     0.36900
H907        H  0.79178383  0.95807176  0.69758756     0.17300
O908        O  0.86662999  0.99709372  0.68944141    -0.59700
H909        H  0.89723229  0.92853274  0.80422495     0.17300
O910        O  0.82397821  0.88783660  0.81155882    -0.59800
H911        H  0.81992986  0.90597540  0.83491584     0.44300
H912        H  0.87621521  0.97773135  0.66821247     0.44200
C913        C  0.65641012  0.85519327  0.91910953    -0.04800
C914        C  0.69473510  0.84338243  0.89914473    -0.32300
C915        C  0.69577805  0.84194376  0.85860353     0.37000
C916        C  0.65797671  0.85355457  0.83698428    -0.05200
C917        C  0.61805870  0.85693566  0.85710241    -0.32200
C918        C  0.61689324  0.85721353  0.89773343     0.36900
H919        H  0.72382761  0.83340995  0.91490028     0.17300
O920        O  0.73217949  0.82481813  0.84072914    -0.59700
H921        H  0.58743971  0.85913509  0.84124684     0.17300
O922        O  0.57709606  0.85660017  0.91635675    -0.59800
H923        H  0.55946931  0.88086274  0.90529895     0.44300
H924        H  0.75790950  0.84018703  0.85143427     0.44200
C925        C  0.65336680  0.85794273  0.66911533    -0.04800
C926        C  0.69029182  0.84334222  0.64859350    -0.32300
C927        C  0.69100999  0.84318109  0.60808037     0.37000
C928        C  0.65463033  0.85939352  0.58680253    -0.05200
C929        C  0.61532171  0.86629189  0.60714865    -0.32200
C930        C  0.61414726  0.86470137  0.64789102     0.36900
H931        H  0.71861827  0.83061275  0.66394656     0.17300
O932        O  0.72583657  0.82371545  0.58968403    -0.59700
H933        H  0.58496127  0.87139651  0.59144349     0.17300
O934        O  0.57433927  0.86572637  0.66651215    -0.59800
H935        H  0.55730519  0.89018437  0.65504336     0.44300
H936        H  0.75257910  0.83850700  0.59902029     0.44200
C937        C  0.59648394  0.71238979  0.50528892    -0.04800
C938        C  0.57132101  0.69890741  0.97343639    -0.32300
C939        C  0.55257258  0.65775027  0.97255273     0.37000
C940        C  0.55806408  0.62910539  0.50419744    -0.05200
C941        C  0.58285593  0.64253869  0.53618611    -0.32200
C942        C  0.60255459  0.68332244  0.53667409     0.36900
H943        H  0.56559386  0.72050759  0.94911181     0.17300
O944        O  0.52867605  0.64612788  0.94062611    -0.59700
H945        H  0.58803845  0.62086809  0.56061493     0.17300
O946        O  0.62859803  0.69371533  0.56757694    -0.59800
H947        H  0.65869875  0.68490797  0.55993307     0.44300
H948        H  0.49786989  0.65382173  0.94690974     0.44200
C949        C  0.80149819  0.92693804  0.50386384    -0.04800
C950        C  0.83006858  0.91929056  0.53526904    -0.32300
C951        C  0.87217440  0.93692104  0.53602722     0.37000
C952        C  0.88688639  0.96240467  0.50474440    -0.05200
C953        C  0.85825310  0.97075560  0.97364422    -0.32200
C954        C  0.81588119  0.95353950  0.97304672     0.36900
H955        H  0.82018486  0.89846505  0.55898316     0.17300
O956        O  0.89942426  0.92705240  0.56655107    -0.59700
H957        H  0.86858278  0.99109843  0.94970774     0.17300
O958        O  0.78829585  0.96456961  0.94308385    -0.59800
H959        H  0.80067305  0.95015148  0.91988598     0.44300
H960        H  0.89179900  0.94829061  0.58693624     0.44200
C961        C  0.48563547  0.04586250  0.75413558    -0.04800
C962        C  0.48537966  0.01403623  0.78333018    -0.32300
C963        C  0.51799554  0.98182847  0.78501637     0.37000
C964        C  0.55203881  0.98131656  0.75735225    -0.05200
C965        C  0.55264178  0.01373811  0.72861115    -0.32200
C966        C  0.51972910  0.04559003  0.72668427     0.36900
H967        H  0.45899839  0.01341568  0.80427920     0.17300
O968        O  0.51454547  0.94940223  0.81215032    -0.59700
H969        H  0.57875932  0.01435492  0.70742781     0.17300
O970        O  0.52208168  0.07731458  0.69878807    -0.59800
H971        H  0.51421661  0.06292651  0.67415488     0.44300
H972        H  0.52280887  0.96280604  0.83711410     0.44200
C973        C  0.41481326  0.30529624  0.74540317    -0.04800
C974        C  0.44274599  0.31781079  0.71504347    -0.32300
C975        C  0.46096471  0.35926096  0.71387066     0.37000
C976        C  0.45138568  0.38919006  0.74335508    -0.05200
C977        C  0.42363983  0.37676742  0.77374736    -0.32200
C978        C  0.40495980  0.33557474  0.77469651     0.36900
H979        H  0.45136931  0.29506949  0.69253181     0.17300
O980        O  0.48902219  0.36969562  0.68431611    -0.59700
H981        H  0.41573765  0.39940124  0.79660704     0.17300
O982        O  0.37654069  0.32566758  0.80410179    -0.59800
H983        H  0.34696769  0.33294126  0.79383744     0.44300
H984        H  0.51877647  0.36267505  0.69436583     0.44200
C985        C  0.21551852  0.09541594  0.74851334    -0.04800
C986        C  0.20279276  0.06745399  0.77862570    -0.32300
C987        C  0.16052017  0.05025778  0.77977475     0.37000
C988        C  0.13023853  0.06037345  0.75010264    -0.05200
C989        C  0.14291604  0.08823631  0.71995363    -0.32200
C990        C  0.18500196  0.10593430  0.71907883     0.36900
H991        H  0.22589407  0.05852744  0.80121948     0.17300
O992        O  0.14978485  0.02223855  0.80919482    -0.59700
H993        H  0.11981316  0.09707341  0.69729443     0.17300
O994        O  0.19510148  0.13537450  0.69060038    -0.59800
H995        H  0.19757440  0.11833196  0.66643291     0.44300
H996        H  0.14200806  0.04096718  0.83141731     0.44200
C997        C  0.48899053  0.05228982  0.99578627    -0.04800
C998        C  0.48897178  0.02055230  0.96688726    -0.32300
C999        C  0.52018953  0.98693557  0.96696817     0.37000
C1000       C  0.55258176  0.98465486  0.99626256    -0.05200
C1001       C  0.55320187  0.01703796  0.52462252    -0.32200
C1002       C  0.52178548  0.05049758  0.52465791     0.36900
H1003       H  0.46363643  0.02091168  0.94486342     0.17300
O1004       O  0.51678217  0.95488555  0.93985254    -0.59700
H1005       H  0.57821883  0.01643056  0.54692024     0.17300
O1006       O  0.52431782  0.08216454  0.55223780    -0.59800
H1007       H  0.51574870  0.06798035  0.57692372     0.44300
H1008       H  0.52671801  0.96815761  0.91518474     0.44200
C1009       C  0.36135102  0.15792220  0.91496051    -0.04800
C1010       C  0.36661645  0.11835936  0.89543847    -0.32300
C1011       C  0.36522564  0.11638692  0.85500783     0.37000
C1012       C  0.36110375  0.15483044  0.83287146    -0.05200
C1013       C  0.34705640  0.19226798  0.85238309    -0.32200
C1014       C  0.34643957  0.19397079  0.89298222     0.36900
H1015       H  0.37080052  0.08846555  0.91163922     0.17300
O1016       O  0.36640589  0.07655637  0.83769851    -0.59700
H1017       H  0.33470942  0.21995914  0.83628600     0.17300
O1018       O  0.32662305  0.22874745  0.91063926    -0.59800
H1019       H  0.33982757  0.25514651  0.89918708     0.44300
H1020       H  0.33532258  0.06769745  0.83552241     0.44200
C1021       C  0.36554131  0.15567782  0.58277774    -0.04800
C1022       C  0.40542790  0.15251680  0.60314940    -0.32300
C1023       C  0.40670495  0.15274403  0.64375435     0.37000
C1024       C  0.36718834  0.15486340  0.66498447    -0.05200
C1025       C  0.32911960  0.16738491  0.64460131    -0.32200
C1026       C  0.32813325  0.16852705  0.60400834     0.36900
H1027       H  0.43621925  0.15237360  0.58772530     0.17300
O1028       O  0.44653961  0.15599881  0.66217439    -0.59700
H1029       H  0.30024304  0.17805382  0.66010960     0.17300
O1030       O  0.29222969  0.18627226  0.58546042    -0.59800
H1031       H  0.26600764  0.17229906  0.59682382     0.44300
H1032       H  0.46613977  0.13378195  0.65058985     0.44200
C1033       C  0.42071941  0.30458022  0.50487856    -0.04800
C1034       C  0.44884006  0.31800548  0.97496446    -0.32300
C1035       C  0.46649814  0.35969147  0.97441431     0.37000
C1036       C  0.45703919  0.38880967  0.50458879    -0.05200
C1037       C  0.43005450  0.37514755  0.53510019    -0.32200
C1038       C  0.41164982  0.33371025  0.53531461     0.36900
H1039       H  0.45732544  0.29616403  0.95173686     0.17300
O1040       O  0.49405678  0.37111130  0.94477156    -0.59700
H1041       H  0.42204028  0.39714698  0.55841392     0.17300
O1042       O  0.38264944  0.32318668  0.56411374    -0.59800
H1043       H  0.40080239  0.31886277  0.58772679     0.44300
H1044       H  0.47449078  0.37985243  0.92307353     0.44200
C1045       C  0.21643410  0.09457694  0.49763380    -0.04800
C1046       C  0.20269272  0.06697327  0.96791402    -0.32300
C1047       C  0.16036519  0.04967366  0.96794014     0.37000
C1048       C  0.13088714  0.05989592  0.49807010    -0.05200
C1049       C  0.14444586  0.08797337  0.52744002    -0.32200
C1050       C  0.18642108  0.10579401  0.52706424     0.36900
H1051       H  0.22516428  0.05809104  0.94499998     0.17300
O1052       O  0.14852988  0.02218318  0.93876184    -0.59700
H1053       H  0.12205914  0.09692594  0.55042905     0.17300
O1054       O  0.19731602  0.13497231  0.55516734    -0.59800
H1055       H  0.19221003  0.16387315  0.54322602     0.44300
H1056       H  0.15548299  0.99267676  0.94870865     0.44200
C1057       C  0.97989867  0.47107787  0.75531050    -0.04800
C1058       C  0.97374559  0.50779973  0.77844703    -0.32300
C1059       C  0.00504648  0.54057790  0.77909225     0.37000
C1060       C  0.04302566  0.53687103  0.75624854    -0.05200
C1061       C  0.04967823  0.49968586  0.73383329    -0.32200
C1062       C  0.01859841  0.46672704  0.73349314     0.36900
H1063       H  0.94386159  0.51167785  0.79502195     0.17300
O1064       O  0.99686750  0.57744566  0.79990253    -0.59700
H1065       H  0.07908818  0.49637198  0.71653037     0.17300
O1066       O  0.02629663  0.43046274  0.71174500    -0.59800
H1067       H  0.03634158  0.40798639  0.73047388     0.44300
H1068       H  0.00340785  0.56954018  0.82720518     0.44200
C1069       C  0.91637937  0.21386924  0.75183528    -0.04800
C1070       C  0.94568487  0.20184752  0.78155428    -0.32300
C1071       C  0.96529141  0.16067853  0.78215865     0.37000
C1072       C  0.95569939  0.13084812  0.75267620    -0.05200
C1073       C  0.92605941  0.14273906  0.72326970    -0.32200
C1074       C  0.90605905  0.18358046  0.72296647     0.36900
H1075       H  0.95416079  0.22480777  0.80386946     0.17300
O1076       O  0.99441757  0.15034404  0.81118001    -0.59700
H1077       H  0.91770964  0.11994834  0.70074634     0.17300
O1078       O  0.87589718  0.19328578  0.69464519    -0.59800
H1079       H  0.84693076  0.18767447  0.70660860     0.44300
H1080       H  0.02366800  0.15795545  0.80076349     0.44200
C1081       C  0.70657403  0.40799875  0.73984754    -0.04800
C1082       C  0.69654397  0.44104299  0.71300477    -0.32300
C1083       C  0.65557603  0.46166095  0.71326964     0.37000
C1084       C  0.62393744  0.44947916  0.74081485    -0.05200
C1085       C  0.63346094  0.41581509  0.76702565    -0.32200
C1086       C  0.67411772  0.39461894  0.76625827     0.36900
H1087       H  0.72111133  0.45206033  0.69269214     0.17300
O1088       O  0.64734556  0.49460231  0.68731245    -0.59700
H1089       H  0.60904205  0.40548151  0.78780863     0.17300
O1090       O  0.68168999  0.36074859  0.79132502    -0.59800
H1091       H  0.67474240  0.33434887  0.77635011     0.44300
H1092       H  0.65439265  0.52159416  0.70134030     0.44200
C1093       C  0.97549449  0.47429480  0.99486308    -0.04800
C1094       C  0.00877200  0.47248578  0.96684610    -0.32300
C1095       C  0.04227853  0.50316884  0.96649351     0.37000
C1096       C  0.04236800  0.53646543  0.99413431    -0.05200
C1097       C  0.00872056  0.53852580  0.52170144    -0.32200
C1098       C  0.97539474  0.50801344  0.52210758     0.36900
H1099       H  0.00931505  0.44660195  0.94583807     0.17300
O1100       O  0.07523394  0.49972880  0.93972079    -0.59700
H1101       H  0.00791426  0.56445545  0.54267102     0.17300
O1102       O  0.94246646  0.51189346  0.54888712    -0.59800
H1103       H  0.91826741  0.52725829  0.53516921     0.44300
H1104       H  0.09864557  0.48247037  0.95274670     0.44200
C1105       C  0.85991934  0.36649229  0.83231744    -0.04800
C1106       C  0.89391443  0.34516573  0.85257523    -0.32300
C1107       C  0.89568822  0.34524894  0.89312070     0.37000
C1108       C  0.86170881  0.36541759  0.91434146    -0.05200
C1109       C  0.83498619  0.39518710  0.89407115    -0.32200
C1110       C  0.83448908  0.39662919  0.85342426     0.36900
H1111       H  0.92059258  0.33003481  0.83693555     0.17300
O1112       O  0.93294078  0.33025522  0.91153344    -0.59700
H1113       H  0.81656698  0.41951818  0.90957600     0.17300
O1114       O  0.81431014  0.43100285  0.83492507    -0.59800
H1115       H  0.78514681  0.43490977  0.84719814     0.44300
H1116       H  0.94080486  0.30217590  0.89946040     0.44200
C1117       C  0.86349319  0.36487579  0.66449681    -0.04800
C1118       C  0.84905537  0.32797549  0.64466858    -0.32300
C1119       C  0.84732180  0.32693820  0.60411656     0.37000
C1120       C  0.86178441  0.36294064  0.58232213    -0.05200
C1121       C  0.86718901  0.40214679  0.60218449    -0.32200
C1122       C  0.86750268  0.40357291  0.64277014     0.36900
H1123       H  0.83696740  0.30027938  0.66060039     0.17300
O1124       O  0.82707561  0.29279594  0.58626614    -0.59700
H1125       H  0.86915052  0.43238056  0.58632821     0.17300
O1126       O  0.86679812  0.44314311  0.66077367    -0.59800
H1127       H  0.89114272  0.46016837  0.64947024     0.44300
H1128       H  0.84016845  0.26593766  0.59743598     0.44200
C1129       C  0.91788332  0.21323949  0.99728095    -0.04800
C1130       C  0.90450507  0.18290391  0.52514066    -0.32300
C1131       C  0.92299270  0.14137521  0.52616121     0.37000
C1132       C  0.95564859  0.12990594  0.99922995    -0.05200
C1133       C  0.96867931  0.16004251  0.97108547    -0.32200
C1134       C  0.95038230  0.20165741  0.97024943     0.36900
H1135       H  0.87934204  0.19144462  0.54590486     0.17300
O1136       O  0.90844072  0.11205818  0.55315526    -0.59700
H1137       H  0.99393400  0.15166314  0.95033398     0.17300
O1138       O  0.96545784  0.23117086  0.94372187    -0.59800
H1139       H  0.98939632  0.24667052  0.95711602     0.44300
H1140       H  0.88490836  0.09575943  0.53994265     0.44200
C1141       C  0.70914117  0.41447392  0.00340180    -0.04800
C1142       C  0.69923197  0.44813916  0.97721780    -0.32300
C1143       C  0.65865206  0.46937358  0.97829234     0.37000
C1144       C  0.62699850  0.45686019  0.00570604    -0.05200
C1145       C  0.63710460  0.42373893  0.53240187    -0.32200
C1146       C  0.67773142  0.40231974  0.53117353     0.36900
H1147       H  0.72340315  0.45848010  0.95624031     0.17300
O1148       O  0.65047156  0.50268629  0.95271564    -0.59700
H1149       H  0.61295843  0.41356262  0.55348907     0.17300
O1150       O  0.68602911  0.36894233  0.55660850    -0.59800
H1151       H  0.67945078  0.34219010  0.54201124     0.44300
H1152       H  0.65845210  0.52937774  0.96680953     0.44200
loop_ 
_geom_bond_atom_site_label_1 
_geom_bond_atom_site_label_2 
_geom_bond_distance 
_geom_bond_site_symmetry_2 
_ccdc_geom_bond_type 
C1            C3   1.530       .  S
C1            C5   1.538       .  S
C1            C4   1.538       .  S
C1          C544   1.528       .  S
C2            C6   1.544       .  S
C2            C8   1.542       .  S
C2            C7   1.530       .  S
C2          C532   1.528       .  S
C3           C11   1.373       .  A
C3          C582   1.394   1_554  A
C4           C15   1.375       .  A
C4          C583   1.391   1_554  A
C5           C19   1.375       .  A
C5          C584   1.396   1_554  A
C6            C9   1.379       .  A
C6          C579   1.394       .  A
C7           C13   1.374       .  A
C7          C580   1.391       .  A
C8           C16   1.377       .  A
C8          C581   1.396       .  A
C9           H22   1.081       .  S
C9          N586   1.358       .  A
N10          C11   1.356       .  A
N10         C585   1.358   1_554  A
N10        C1141   1.436       .  S
C11          H12   1.082       .  S
C13          H23   1.083       .  S
C13          N14   1.356       .  A
N14         C591   1.357       .  A
N14         C517   1.434       .  S
C15          H21   1.081       .  S
C15         N590   1.357   1_554  A
C16          H18   1.081       .  S
C16         N593   1.355       .  A
N17          C19   1.354   1_556  A
N17         C592   1.355       .  A
N17        C1129   1.433       .  S
C19          H20   1.082       .  S
C24          C26   1.542       .  S
C24          C28   1.531       .  S
C24          C27   1.538       .  S
C24         C541   1.527       .  S
C25          C29   1.544       .  S
C25          C31   1.539       .  S
C25          C30   1.529       .  S
C25         C529   1.528       .  S
C26          C34   1.376       .  A
C26          C29   1.396       .  A
C27          C38   1.377       .  A
C27          C30   1.391       .  A
C28          C42   1.374       .  A
C28          C31   1.392       .  A
C29          C32   1.379       .  A
C30          C36   1.372       .  A
C31          C39   1.376       .  A
C32          H45   1.082       .  S
C32          N33   1.357       .  A
N33          C34   1.357       .  A
N33         C493   1.438       .  S
C34          H35   1.082       .  S
C36          H46   1.083       .  S
C36          N37   1.355       .  A
N37          C38   1.358       .  A
N37         C481   1.433       .  S
C38          H44   1.081       .  S
C39          H41   1.079       .  S
C39          N40   1.358       .  A
N40          C42   1.357       .  A
N40         C505   1.438       .  S
C42          H43   1.083       .  S
C47          C49   1.533       .  S
C47          C51   1.537       .  S
C47          C50   1.543       .  S
C47         C445   1.529       .  S
C48          C52   1.544       .  S
C48          C54   1.533       .  S
C48          C53   1.548       .  S
C48         C433   1.529       .  S
C49          C57   1.376       .  A
C49         C628   1.397   1_554  A
C50          C61   1.378       .  A
C50         C629   1.394   1_554  A
C51          C65   1.376       .  A
C51         C630   1.388   1_554  A
C52          C55   1.382       .  A
C52         C625   1.397       .  A
C53          C59   1.383       .  A
C53         C626   1.394       .  A
C54          C62   1.378       .  A
C54         C627   1.388       .  A
C55          H68   1.080       .  S
C55          N56   1.360       .  A
N56         C633   1.357       .  A
N56        C1033   1.447       .  S
C57          H58   1.081       .  S
C57         N632   1.357       .  A
C59          H69   1.082       .  S
C59          N60   1.361       .  A
N60         C637   1.357       .  A
N60         C421   1.444       .  S
C61          H67   1.081       .  S
C61         N636   1.357   1_554  A
C62          H64   1.082       .  S
C62          N63   1.359       .  A
N63         C641   1.359       .  A
N63        C1045   1.442       .  S
C65          H66   1.081       .  S
C65         N639   1.359   1_554  A
C70          C72   1.540       .  S
C70          C74   1.533       .  S
C70          C73   1.543       .  S
C70         C436   1.529       .  S
C71          C75   1.534       .  S
C71          C77   1.539       .  S
C71          C76   1.543       .  S
C71         C448   1.529       .  S
C72          C80   1.378       .  A
C72          C75   1.391       .  A
C73          C84   1.379       .  A
C73          C76   1.395       .  A
C74          C88   1.374       .  A
C74          C77   1.391       .  A
C75          C78   1.376       .  A
C76          C82   1.378       .  A
C77          C85   1.377       .  A
C78          H91   1.082       .  S
C78          N79   1.360       .  A
N79          C80   1.359       .  A
N79         C397   1.444       .  S
C80          H81   1.081       .  S
C82          H92   1.081       .  S
C82          N83   1.357       .  A
N83          C84   1.357       .  A
N83         C385   1.439       .  S
C84          H90   1.082       .  S
C85          H87   1.081       .  S
C85          N86   1.359       .  A
N86          C88   1.359       .  A
N86         C409   1.441       .  S
C88          H89   1.082       .  S
C93          C95   1.531       .  S
C93          C97   1.544       .  S
C93          C96   1.546       .  S
C93         C352   1.530       .  S
C94          C98   1.527       .  S
C94         C100   1.543       .  S
C94          C99   1.543       .  S
C94         C337   1.528       .  S
C95         C103   1.376       .  A
C95         C674   1.383   1_554  A
C96         C107   1.381       .  A
C96         C675   1.396   1_554  A
C97         C111   1.381       .  A
C97         C676   1.399   1_554  A
C98         C101   1.373       .  A
C98         C671   1.383       .  A
C99         C105   1.376       .  A
C99         C672   1.396       .  A
C100        C108   1.382       .  A
C100        C673   1.399       .  A
C101        H114   1.082       .  S
C101        N678   1.361       .  A
N102        C103   1.363       .  A
N102        C677   1.361   1_554  A
N102        C361   1.446       .  S
C103        H104   1.081       .  S
C105        H115   1.081       .  S
C105        N682   1.359       .  A
N106        C107   1.362   1_556  A
N106        C681   1.359       .  A
N106       C1000   1.446       .  S
C107        H113   1.081       .  S
C108        H110   1.078       .  S
C108        N685   1.357       .  A
N109        C111   1.356       .  A
N109        C684   1.357   1_554  A
N109        C373   1.446       .  S
C111        H112   1.082       .  S
C116        C118   1.530       .  S
C116        C120   1.538       .  S
C116        C119   1.541       .  S
C116        C340   1.530       .  S
C117        C121   1.531       .  S
C117        C123   1.551       .  S
C117        C122   1.543       .  S
C117        C349   1.531       .  S
C118        C126   1.374       .  A
C118        C121   1.383       .  A
C119        C130   1.378       .  A
C119        C122   1.395       .  A
C120        C134   1.377       .  A
C120        C123   1.401       .  A
C121        C124   1.375       .  A
C122        C128   1.377       .  A
C123        C131   1.386       .  A
C124        H137   1.082       .  S
C124        N125   1.364       .  A
N125        C126   1.364       .  A
N125        C313   1.451       .  S
C126        H127   1.079       .  S
C128        H138   1.080       .  S
C128        N129   1.359       .  A
N129        C130   1.359       .  A
N129        C388   1.443       .  S
C130        H136   1.081       .  S
C131        H133   1.081       .  S
C131        N132   1.358       .  A
N132        C134   1.354       .  A
N132        C325   1.446       .  S
C134        H135   1.081       .  S
C139        C141   1.538       .  S
C139        C143   1.546       .  S
C139        C142   1.532       .  S
C139        C265   1.529       .  S
C140        C144   1.530       .  S
C140        C146   1.545       .  S
C140        C145   1.533       .  S
C140        C277   1.528       .  S
C141        C149   1.374       .  A
C141        C720   1.389       .  A
C142        C153   1.375       .  A
C142        C721   1.391       .  A
C143        C157   1.380       .  A
C143        C722   1.398       .  A
C144        C147   1.374       .  A
C144        C717   1.389   1_554  A
C145        C151   1.372       .  A
C145        C718   1.391   1_554  A
C146        C154   1.378       .  A
C146        C719   1.398   1_554  A
C147        H160   1.082       .  S
C147        N724   1.359       .  A
N148        C149   1.359       .  A
N148        C723   1.359       .  A
N148        C301   1.442       .  S
C149        H150   1.080       .  S
C151        H161   1.081       .  S
C151        N728   1.356   1_554  A
N152        C153   1.357       .  A
N152        C727   1.356       .  A
N152        C520   1.433       .  S
C153        H159   1.082       .  S
C154        H156   1.082       .  S
C154        N731   1.358       .  A
N155        C157   1.358       .  A
N155        C730   1.358       .  A
N155        C289   1.440       .  S
C157        H158   1.081       .  S
C162        C164   1.540       .  S
C162        C166   1.540       .  S
C162        C165   1.532       .  S
C162        C268   1.528       .  S
C163        C167   1.540       .  S
C163        C169   1.535       .  S
C163        C168   1.538       .  S
C163        C280   1.527       .  S
C164        C172   1.375       .  A
C164        C167   1.391       .  A
C165        C176   1.374       .  A
C165        C168   1.393       .  A
C166        C180   1.375       .  A
C166        C169   1.392       .  A
C167        C170   1.375       .  A
C168        C174   1.378       .  A
C169        C177   1.376       .  A
C170        H183   1.081       .  S
C170        N171   1.359       .  A
N171        C172   1.358       .  A
N171        C244   1.442       .  S
C172        H173   1.080       .  S
C174        H184   1.082       .  S
C174        N175   1.357       .  A
N175        C176   1.356       .  A
N175        C484   1.433       .  S
C176        H182   1.082       .  S
C177        H179   1.082       .  S
C177        N178   1.360       .  A
N178        C180   1.360       .  A
N178        C253   1.442       .  S
C180        H181   1.081       .  S
O185       Ni193   1.909   1_655  S
O185        C771   1.280       .  A
O186       Ni193   1.910   1_565  S
O186        C772   1.280       .  A
O187       Ni193   1.920       .  S
O187        C197   1.283   1_554  A
O188       Ni193   1.916   1_665  S
O188        C198   1.281       .  A
O189       Ni194   1.915   1_665  S
O189        C774   1.281       .  A
O190       Ni194   1.915       .  S
O190        C773   1.280       .  A
O191       Ni194   1.909   1_565  S
O191        C196   1.281       .  A
O192       Ni194   1.910   1_655  S
O192        C195   1.280       .  A
Ni193      Ni770   2.388   1_554  S
Ni194      Ni769   2.388       .  S
C195        O761   1.280       .  A
C195        C556   1.467       .  S
C196        O762   1.280       .  A
C196        C304   1.476       .  S
C197        O766   1.280       .  A
C197        C472   1.480       .  S
C198        O765   1.281   1_554  A
C198        C376   1.480       .  S
O199       Ni207   1.912   1_565  S
O199        C209   1.281       .  A
O200       Ni207   1.915   1_655  S
O200        C210   1.281       .  A
O201       Ni207   1.915   1_665  S
O201        C211   1.282       .  A
O202       Ni207   1.913       .  S
O202        C212   1.280       .  A
O203       Ni208   1.916       .  S
O203        C212   1.282       .  A
O204       Ni208   1.918   1_665  S
O204        C211   1.281       .  A
O205       Ni208   1.911   1_655  S
O205        C210   1.281       .  A
O206       Ni208   1.919   1_565  S
O206        C209   1.281       .  A
Ni207      Ni208   2.388       .  S
C209        C256   1.479       .  S
C210        C496   1.474       .  S
C211        C328   1.480       .  S
C212        C412   1.477       .  S
O213       Ni221   1.919       .  S
O213        C799   1.282       .  A
O214       Ni221   1.918       .  S
O214        C800   1.281       .  A
O215       Ni221   1.918       .  S
O215        C225   1.282       .  A
O216       Ni221   1.918       .  S
O216        C226   1.282       .  A
O217       Ni222   1.916       .  S
O217        C802   1.281       .  A
O218       Ni222   1.915       .  S
O218        C801   1.281       .  A
O219       Ni222   1.910       .  S
O219        C224   1.280       .  A
O220       Ni222   1.915       .  S
O220        C223   1.281       .  A
Ni221      Ni798   2.387   1_554  S
Ni222      Ni797   2.387       .  S
C223        O789   1.282       .  A
C223        C292   1.479       .  S
C224        O790   1.281       .  A
C224        C568   1.472       .  S
C225        O794   1.281   1_554  A
C225        C364   1.482       .  S
C226        O793   1.281   1_554  A
C226        C460   1.481       .  S
O227       Ni235   1.916       .  S
O227        C237   1.281       .  A
O228       Ni235   1.913       .  S
O228        C238   1.281       .  A
O229       Ni235   1.911       .  S
O229        C239   1.280       .  A
O230       Ni235   1.915       .  S
O230        C240   1.282       .  A
O231       Ni236   1.919       .  S
O231        C240   1.282       .  A
O232       Ni236   1.922       .  S
O232        C239   1.282       .  A
O233       Ni236   1.913       .  S
O233        C238   1.281       .  A
O234       Ni236   1.907       .  S
O234        C237   1.279       .  A
Ni235      Ni236   2.388       .  S
C237        C508   1.470       .  S
C238        C241   1.480       .  S
C239        C400   1.478       .  S
C240        C316   1.483       .  S
C241        C242   1.405       .  A
C241        C246   1.410       .  A
C242        C243   1.398       .  A
C242        H247   1.083       .  S
C243        C244   1.412       .  A
C243        O248   1.371       .  S
C244        C245   1.406       .  A
C245        C246   1.397       .  A
C245        H249   1.082       .  S
C246        O250   1.372       .  S
O248        H252   0.992       .  S
O250        H251   0.991       .  S
C253        C254   1.405       .  A
C253        C258   1.412       .  A
C254        C255   1.395       .  A
C254        H259   1.082       .  S
C255        C256   1.409       .  A
C255        O260   1.372       .  S
C256        C257   1.406       .  A
C257        C258   1.402       .  A
C257        H261   1.084       .  S
C258        O262   1.371       .  S
O260        H264   0.992   1_455  S
O262        H263   0.992       .  S
C265        C266   1.404       .  A
C265        C270   1.414       .  A
C266        C267   1.402       .  A
C266        H271   1.081       .  S
C267        C268   1.414       .  A
C267        O272   1.375       .  S
C268        C269   1.405       .  A
C269        C270   1.403       .  A
C269        H273   1.081       .  S
C270        O274   1.375       .  S
O272        H276   0.993       .  S
O274        H275   0.992       .  S
C277        C278   1.405       .  A
C277        C282   1.415       .  A
C278        C279   1.400       .  A
C278        H283   1.082       .  S
C279        C280   1.413       .  A
C279        O284   1.375       .  S
C280        C281   1.405       .  A
C281        C282   1.405       .  A
C281        H285   1.081       .  S
C282        O286   1.375       .  S
O284        H288   0.992       .  S
O286        H287   0.993       .  S
C289        C290   1.405       .  A
C289        C870   1.409       .  A
C290        C291   1.400       .  A
C290        H295   1.083       .  S
C291        C292   1.410       .  A
C291        O296   1.372       .  S
C292        C869   1.404       .  A
C293        C294   1.399       .  A
C293        C868   1.404       .  A
C293        H297   1.084       .  S
C294        C865   1.409       .  A
C294        O298   1.371       .  S
O296        H300   0.992       .  S
O298        H299   0.992       .  S
C301        C306   1.413       .  A
C301        C878   1.405       .  A
C302        C303   1.399       .  A
C302        C877   1.405       .  A
C302        H307   1.082       .  S
C303        C880   1.410       .  A
C303        O308   1.372       .  S
C304        C305   1.402       .  A
C304        C879   1.410       .  A
C305        C306   1.393       .  A
C305        H309   1.084       .  S
C306        O310   1.370       .  S
O308        H312   0.992       .  S
O310        H311   0.992       .  S
C313        C314   1.409       .  A
C313        C318   1.416       .  A
C314        C315   1.401       .  A
C314        H319   1.082       .  S
C315        C316   1.409       .  A
C315        O320   1.372       .  S
C316        C317   1.403       .  A
C317        C318   1.401       .  A
C317        H321   1.084       .  S
C318        O322   1.371       .  S
O320        H324   0.992       .  S
O322        H323   0.992       .  S
C325        C326   1.407       .  A
C325        C330   1.414       .  A
C326        C327   1.404       .  A
C326        H331   1.082       .  S
C327        C328   1.410       .  A
C327        O332   1.372       .  S
C328        C329   1.401       .  A
C329        C330   1.398       .  A
C329        H333   1.084       .  S
C330        O334   1.371       .  S
O332        H336   0.992       .  S
O334        H335   0.992       .  S
C337        C338   1.405       .  A
C337        C342   1.413       .  A
C338        C339   1.401       .  A
C338        H343   1.081       .  S
C339        C340   1.414       .  A
C339        O344   1.375       .  S
C340        C341   1.406       .  A
C341        C342   1.404       .  A
C341        H345   1.083       .  S
C342        O346   1.375       .  S
O344        H348   0.993       .  S
O346        H347   0.992       .  S
C349        C350   1.404       .  A
C349        C354   1.415       .  A
C350        C351   1.399       .  A
C350        H355   1.082       .  S
C351        C352   1.415       .  A
C351        O356   1.374       .  S
C352        C353   1.406       .  A
C353        C354   1.408       .  A
C353        H357   1.082       .  S
C354        O358   1.375       .  S
O356        H360   0.992       .  S
O358        H359   0.992       .  S
C361        C366   1.413       .  A
C361        C938   1.407   1_554  A
C362        C363   1.398       .  A
C362        C937   1.407       .  A
C362        H367   1.082       .  S
C363        C940   1.410       .  A
C363        O368   1.372       .  S
C364        C365   1.404       .  A
C364        C939   1.410   1_554  A
C365        C366   1.400       .  A
C365        H369   1.084       .  S
C366        O370   1.370       .  S
O368        H372   0.992       .  S
O370        H371   0.992       .  S
C373        C374   1.407       .  A
C373        C954   1.413   1_554  A
C374        C375   1.399       .  A
C374        H379   1.083       .  S
C375        C376   1.409       .  A
C375        O380   1.372       .  S
C376        C953   1.404   1_554  A
C377        C378   1.402       .  A
C377        C952   1.404       .  A
C377        H381   1.084       .  S
C378        C949   1.413       .  A
C378        O382   1.371       .  S
O380        H384   0.992       .  S
O382        H383   0.993       .  S
C385        C386   1.403       .  A
C385        C390   1.408       .  A
C386        C387   1.401   1_545  A
C386        H391   1.083       .  S
C387        C388   1.412       .  A
C387        O392   1.371       .  S
C388        C389   1.405   1_565  A
C389        C390   1.400       .  A
C389        H393   1.083       .  S
C390        O394   1.372       .  S
O392        H396   0.992       .  S
O394        H395   0.992       .  S
C397        C398   1.406       .  A
C397        C402   1.413       .  A
C398        C399   1.400       .  A
C398        H403   1.082       .  S
C399        C400   1.409       .  A
C399        O404   1.372       .  S
C400        C401   1.403       .  A
C401        C402   1.398       .  A
C401        H405   1.084       .  S
C402        O406   1.371       .  S
O404        H408   0.992       .  S
O406        H407   0.992       .  S
C409        C410   1.404       .  A
C409        C414   1.411       .  A
C410        C411   1.399       .  A
C410        H415   1.083       .  S
C411        C412   1.410       .  A
C411        O416   1.372       .  S
C412        C413   1.403       .  A
C413        C414   1.400       .  A
C413        H417   1.084       .  S
C414        O418   1.372       .  S
O416        H420   0.992       .  S
O418        H419   0.992       .  S
C421        C422   1.403       .  A
C421       C1002   1.411       .  A
C422        C423   1.402   1_545  A
C422        H427   1.083       .  S
C423        C424   1.413       .  A
C423        O428   1.371       .  S
C424       C1001   1.404   1_565  A
C424        N682   1.446       .  S
C425        C426   1.403       .  A
C425       C1000   1.404   1_544  A
C425        H429   1.083       .  S
C426        C997   1.411   1_554  A
C426        O430   1.372       .  S
O428        H432   0.992       .  S
O430        H431   0.992       .  S
C433        C434   1.407       .  A
C433        C438   1.414       .  A
C434        C435   1.398       .  A
C434        H439   1.082       .  S
C435        C436   1.412       .  A
C435        O440   1.371       .  S
C436        C437   1.406       .  A
C437        C438   1.403       .  A
C437        H441   1.081       .  S
C438        O442   1.374       .  S
O440        H444   0.992       .  S
O442        H443   0.992       .  S
C445        C446   1.406       .  A
C445        C450   1.413       .  A
C446        C447   1.403       .  A
C446        H451   1.080       .  S
C447        C448   1.413       .  A
C447        O452   1.375       .  S
C448        C449   1.406       .  A
C449        C450   1.402       .  A
C449        H453   1.082       .  S
C450        O454   1.375       .  S
O452        H456   0.992       .  S
O454        H455   0.992       .  S
C457        C462   1.414       .  A
C457       C1034   1.406   1_554  A
C457        N632   1.447       .  S
C458        C459   1.399       .  A
C458       C1033   1.406       .  A
C458        H463   1.082       .  S
C459       C1036   1.409       .  A
C459        O464   1.372       .  S
C460        C461   1.403       .  A
C460       C1035   1.409   1_554  A
C461        C462   1.401       .  A
C461        H465   1.084       .  S
C462        O466   1.371       .  S
O464        H468   0.991       .  S
O466        H467   0.992       .  S
C469        C474   1.412   1_556  A
C469       C1046   1.404       .  A
C469        N639   1.442       .  S
C470        C471   1.401       .  A
C470       C1045   1.404       .  A
C470        H475   1.083       .  S
C471       C1048   1.412       .  A
C471        O476   1.372       .  S
C472        C473   1.403   1_556  A
C472       C1047   1.412       .  A
C473        C474   1.398       .  A
C473        H477   1.084       .  S
C474        O478   1.371       .  S
O476        H480   0.992   1_545  S
O478        H479   0.991       .  S
C481        C482   1.403       .  A
C481        C486   1.407   1_655  A
C482        C483   1.397   1_655  A
C482        H487   1.083       .  S
C483        C484   1.407       .  A
C483        O488   1.371   1_455  S
C484        C485   1.402       .  A
C485        C486   1.397       .  A
C485        H489   1.083       .  S
C486        O490   1.371       .  S
O488        H492   0.992   1_655  S
O490        H491   0.991       .  S
C493        C494   1.405       .  A
C493        C498   1.408       .  A
C494        C495   1.400       .  A
C494        H499   1.083       .  S
C495        C496   1.409       .  A
C495        O500   1.372       .  S
C496        C497   1.403       .  A
C497        C498   1.396       .  A
C497        H501   1.084       .  S
C498        O502   1.371       .  S
O500        H504   0.992   1_655  S
O502        H503   0.992       .  S
C505        C506   1.405       .  A
C505        C510   1.410       .  A
C506        C507   1.397       .  A
C506        H511   1.083       .  S
C507        C508   1.408       .  A
C507        O512   1.372       .  S
C508        C509   1.402       .  A
C509        C510   1.397       .  A
C509        H513   1.084       .  S
C510        O514   1.371       .  S
O512        H516   0.992       .  S
O514        H515   0.992       .  S
C517        C518   1.404   1_655  A
C517       C1098   1.408       .  A
C518        C519   1.399       .  A
C518        H523   1.083       .  S
C519        C520   1.407       .  A
C519        O524   1.371       .  S
C520       C1097   1.402       .  A
C521        C522   1.392   1_455  A
C521       C1096   1.402   1_554  A
C521        H525   1.083       .  S
C522       C1093   1.408   1_554  A
C522        O526   1.371       .  S
O524        H528   0.992       .  S
O526        H527   0.992       .  S
C529        C530   1.406       .  A
C529        C534   1.413       .  A
C530        C531   1.401       .  A
C530        H535   1.082       .  S
C531        C532   1.413       .  A
C531        O536   1.376       .  S
C532        C533   1.405       .  A
C533        C534   1.404       .  A
C533        H537   1.080       .  S
C534        O538   1.375       .  S
O536        H540   0.992       .  S
O538        H539   0.993       .  S
C541        C542   1.407       .  A
C541        C546   1.413       .  A
C542        C543   1.402       .  A
C542        H547   1.082       .  S
C543        C544   1.412       .  A
C543        O548   1.375       .  S
C544        C545   1.406       .  A
C545        C546   1.402       .  A
C545        H549   1.081       .  S
C546        O550   1.374       .  S
O548        H552   0.992       .  S
O550        H551   0.992       .  S
C553        C558   1.408       .  A
C553       C1130   1.402       .  A
C553        N593   1.433       .  S
C554        C555   1.396       .  A
C554       C1129   1.402   1_554  A
C554        H559   1.083       .  S
C555       C1132   1.408   1_554  A
C555        O560   1.372       .  S
C556        C557   1.401       .  A
C556       C1131   1.408       .  A
C557        C558   1.396       .  A
C557        H561   1.084       .  S
C558        O562   1.371       .  S
O560        H564   0.992       .  S
O562        H563   0.992       .  S
C565        C566   1.403       .  A
C565       C1146   1.408       .  A
C565        N586   1.436       .  S
C566        C567   1.396       .  A
C566        H571   1.083       .  S
C567        C568   1.408       .  A
C567        O572   1.372       .  S
C568       C1145   1.404       .  A
C569        C570   1.400       .  A
C569       C1144   1.404       .  A
C569        H573   1.084       .  S
C570       C1141   1.408       .  A
C570        O574   1.371       .  S
O572        H576   0.992       .  S
O574        H575   0.992       .  S
C577        C579   1.530       .  S
C577        C581   1.538       .  S
C577        C580   1.538       .  S
C577       C1120   1.528       .  S
C578        C582   1.544       .  S
C578        C584   1.542       .  S
C578        C583   1.530       .  S
C578       C1108   1.528       .  S
C579        C587   1.373       .  A
C580        C591   1.375       .  A
C581        C595   1.375       .  A
C582        C585   1.379       .  A
C583        C589   1.374       .  A
C584        C592   1.377       .  A
C585        H598   1.081       .  S
N586        C587   1.356       .  A
C587        H588   1.082       .  S
C589        H599   1.083       .  S
C589        N590   1.356       .  A
N590       C1093   1.434       .  S
C591        H597   1.081       .  S
C592        H594   1.081       .  S
N593        C595   1.354       .  A
C595        H596   1.082       .  S
C600        C602   1.542       .  S
C600        C604   1.531       .  S
C600        C603   1.538       .  S
C600       C1117   1.527       .  S
C601        C605   1.544       .  S
C601        C607   1.539       .  S
C601        C606   1.529       .  S
C601       C1105   1.528       .  S
C602        C610   1.376       .  A
C602        C605   1.396       .  A
C603        C614   1.377       .  A
C603        C606   1.391       .  A
C604        C618   1.374       .  A
C604        C607   1.392       .  A
C605        C608   1.379       .  A
C606        C612   1.372       .  A
C607        C615   1.376       .  A
C608        H621   1.082       .  S
C608        N609   1.357       .  A
N609        C610   1.357       .  A
N609       C1069   1.438       .  S
C610        H611   1.082       .  S
C612        H622   1.083       .  S
C612        N613   1.355       .  A
N613        C614   1.358       .  A
N613       C1057   1.433       .  S
C614        H620   1.081       .  S
C615        H617   1.079       .  S
C615        N616   1.358       .  A
N616        C618   1.357       .  A
N616       C1081   1.438       .  S
C618        H619   1.083       .  S
C623        C625   1.533       .  S
C623        C627   1.537       .  S
C623        C626   1.543       .  S
C623       C1021   1.529       .  S
C624        C628   1.544       .  S
C624        C630   1.533       .  S
C624        C629   1.548       .  S
C624       C1009   1.529       .  S
C625        C633   1.376       .  A
C626        C637   1.378       .  A
C627        C641   1.376       .  A
C628        C631   1.382       .  A
C629        C635   1.383       .  A
C630        C638   1.378       .  A
C631        H644   1.080       .  S
C631        N632   1.360   1_556  A
C633        H634   1.081       .  S
C635        H645   1.082       .  S
C635        N636   1.361       .  A
N636        C997   1.444       .  S
C637        H643   1.081       .  S
C638        H640   1.082       .  S
C638        N639   1.359       .  A
C641        H642   1.081       .  S
C646        C648   1.540       .  S
C646        C650   1.533       .  S
C646        C649   1.543       .  S
C646       C1012   1.529       .  S
C647        C651   1.534       .  S
C647        C653   1.539       .  S
C647        C652   1.543       .  S
C647       C1024   1.529       .  S
C648        C656   1.378       .  A
C648        C651   1.391       .  A
C649        C660   1.379       .  A
C649        C652   1.395       .  A
C650        C664   1.374       .  A
C650        C653   1.391       .  A
C651        C654   1.376       .  A
C652        C658   1.378       .  A
C653        C661   1.377       .  A
C654        H667   1.082       .  S
C654        N655   1.360       .  A
N655        C656   1.359       .  A
N655        C973   1.444       .  S
C656        H657   1.081       .  S
C658        H668   1.081       .  S
C658        N659   1.357       .  A
N659        C660   1.357       .  A
N659        C961   1.439       .  S
C660        H666   1.082       .  S
C661        H663   1.081       .  S
C661        N662   1.359       .  A
N662        C664   1.359       .  A
N662        C985   1.441       .  S
C664        H665   1.082       .  S
C669        C671   1.531       .  S
C669        C673   1.544       .  S
C669        C672   1.546       .  S
C669        C928   1.530       .  S
C670        C674   1.527       .  S
C670        C676   1.543       .  S
C670        C675   1.543       .  S
C670        C913   1.528       .  S
C671        C679   1.376       .  A
C672        C683   1.381       .  A
C673        C687   1.381       .  A
C674        C677   1.373       .  A
C675        C681   1.376       .  A
C676        C684   1.382       .  A
C677        H690   1.082       .  S
N678        C679   1.363       .  A
N678        C937   1.446       .  S
C679        H680   1.081       .  S
C681        H691   1.081       .  S
N682        C683   1.362       .  A
C683        H689   1.081       .  S
C684        H686   1.078       .  S
N685        C687   1.356       .  A
N685        C949   1.446       .  S
C687        H688   1.082       .  S
C692        C694   1.530       .  S
C692        C696   1.538       .  S
C692        C695   1.541       .  S
C692        C916   1.530       .  S
C693        C697   1.531       .  S
C693        C699   1.551       .  S
C693        C698   1.543       .  S
C693        C925   1.531       .  S
C694        C702   1.374       .  A
C694        C697   1.383       .  A
C695        C706   1.378       .  A
C695        C698   1.395       .  A
C696        C710   1.377       .  A
C696        C699   1.401       .  A
C697        C700   1.375       .  A
C698        C704   1.377       .  A
C699        C707   1.386       .  A
C700        H713   1.082       .  S
C700        N701   1.364       .  A
N701        C702   1.364       .  A
N701        C889   1.451       .  S
C702        H703   1.079       .  S
C704        H714   1.080       .  S
C704        N705   1.359       .  A
N705        C706   1.359       .  A
N705        C964   1.443       .  S
C706        H712   1.081       .  S
C707        H709   1.081       .  S
C707        N708   1.358       .  A
N708        C710   1.354       .  A
N708        C901   1.446       .  S
C710        H711   1.081       .  S
C715        C717   1.538       .  S
C715        C719   1.546       .  S
C715        C718   1.532       .  S
C715        C841   1.529       .  S
C716        C720   1.530       .  S
C716        C722   1.545       .  S
C716        C721   1.533       .  S
C716        C853   1.528       .  S
C717        C725   1.374       .  A
C718        C729   1.375       .  A
C719        C733   1.380       .  A
C720        C723   1.374       .  A
C721        C727   1.372       .  A
C722        C730   1.378       .  A
C723        H736   1.082       .  S
N724        C725   1.359   1_554  A
N724        C877   1.442       .  S
C725        H726   1.080       .  S
C727        H737   1.081       .  S
N728        C729   1.357       .  A
N728       C1096   1.433       .  S
C729        H735   1.082       .  S
C730        H732   1.082       .  S
N731        C733   1.358   1_554  A
N731        C865   1.440       .  S
C733        H734   1.081       .  S
C738        C740   1.540       .  S
C738        C742   1.540       .  S
C738        C741   1.532       .  S
C738        C844   1.528       .  S
C739        C743   1.540       .  S
C739        C745   1.535       .  S
C739        C744   1.538       .  S
C739        C856   1.527       .  S
C740        C748   1.375       .  A
C740        C743   1.391       .  A
C741        C752   1.374       .  A
C741        C744   1.393       .  A
C742        C756   1.375       .  A
C742        C745   1.392       .  A
C743        C746   1.375       .  A
C744        C750   1.378       .  A
C745        C753   1.376       .  A
C746        H759   1.081       .  S
C746        N747   1.359       .  A
N747        C748   1.358       .  A
N747        C820   1.442       .  S
C748        H749   1.080       .  S
C750        H760   1.082       .  S
C750        N751   1.357       .  A
N751        C752   1.356       .  A
N751       C1060   1.433       .  S
C752        H758   1.082       .  S
C753        H755   1.082       .  S
C753        N754   1.360       .  A
N754        C756   1.360       .  A
N754        C829   1.442       .  S
C756        H757   1.081       .  S
O761       Ni769   1.909   1_655  S
O762       Ni769   1.910   1_565  S
O763       Ni769   1.920       .  S
O763        C773   1.283       .  A
O764       Ni769   1.916   1_665  S
O764        C774   1.281       .  A
O765       Ni770   1.915   1_665  S
O766       Ni770   1.915       .  S
O767       Ni770   1.909   1_565  S
O767        C772   1.281   1_556  A
O768       Ni770   1.910   1_655  S
O768        C771   1.280   1_556  A
C771       C1132   1.467   1_554  S
C772        C880   1.476       .  S
C773       C1048   1.480       .  S
C774        C952   1.480       .  S
O775       Ni783   1.912   1_565  S
O775        C785   1.281       .  A
O776       Ni783   1.915   1_655  S
O776        C786   1.281       .  A
O777       Ni783   1.915   1_665  S
O777        C787   1.282       .  A
O778       Ni783   1.913       .  S
O778        C788   1.280       .  A
O779       Ni784   1.916       .  S
O779        C788   1.282       .  A
O780       Ni784   1.918   1_665  S
O780        C787   1.281       .  A
O781       Ni784   1.911   1_655  S
O781        C786   1.281       .  A
O782       Ni784   1.919   1_565  S
O782        C785   1.281       .  A
Ni783      Ni784   2.388       .  S
C785        C832   1.479       .  S
C786       C1072   1.474       .  S
C787        C904   1.480       .  S
C788        C988   1.477       .  S
O789       Ni797   1.919       .  S
O790       Ni797   1.918       .  S
O791       Ni797   1.918       .  S
O791        C801   1.282       .  A
O792       Ni797   1.918       .  S
O792        C802   1.282       .  A
O793       Ni798   1.916       .  S
O794       Ni798   1.915       .  S
O795       Ni798   1.910       .  S
O795        C800   1.280   1_556  A
O796       Ni798   1.915       .  S
O796        C799   1.281   1_556  A
C799        C868   1.479       .  S
C800       C1144   1.472       .  S
C801        C940   1.482       .  S
C802       C1036   1.481       .  S
O803       Ni811   1.916       .  S
O803        C813   1.281       .  A
O804       Ni811   1.913       .  S
O804        C814   1.281       .  A
O805       Ni811   1.911       .  S
O805        C815   1.280       .  A
O806       Ni811   1.915       .  S
O806        C816   1.282       .  A
O807       Ni812   1.919       .  S
O807        C816   1.282       .  A
O808       Ni812   1.922       .  S
O808        C815   1.282       .  A
O809       Ni812   1.913       .  S
O809        C814   1.281       .  A
O810       Ni812   1.907       .  S
O810        C813   1.279       .  A
Ni811      Ni812   2.388       .  S
C813       C1084   1.470       .  S
C814        C817   1.480       .  S
C815        C976   1.478       .  S
C816        C892   1.483       .  S
C817        C818   1.405       .  A
C817        C822   1.410       .  A
C818        C819   1.398       .  A
C818        H823   1.083       .  S
C819        C820   1.412       .  A
C819        O824   1.371       .  S
C820        C821   1.406       .  A
C821        C822   1.397       .  A
C821        H825   1.082       .  S
C822        O826   1.372       .  S
O824        H828   0.992       .  S
O826        H827   0.991       .  S
C829        C830   1.405       .  A
C829        C834   1.412       .  A
C830        C831   1.395       .  A
C830        H835   1.082       .  S
C831        C832   1.409       .  A
C831        O836   1.372       .  S
C832        C833   1.406       .  A
C833        C834   1.402       .  A
C833        H837   1.084       .  S
C834        O838   1.371       .  S
O836        H840   0.992   1_455  S
O838        H839   0.992       .  S
C841        C842   1.404       .  A
C841        C846   1.414       .  A
C842        C843   1.402       .  A
C842        H847   1.081       .  S
C843        C844   1.414       .  A
C843        O848   1.375       .  S
C844        C845   1.405       .  A
C845        C846   1.403       .  A
C845        H849   1.081       .  S
C846        O850   1.375       .  S
O848        H852   0.993       .  S
O850        H851   0.992       .  S
C853        C854   1.405       .  A
C853        C858   1.415       .  A
C854        C855   1.400       .  A
C854        H859   1.082       .  S
C855        C856   1.413       .  A
C855        O860   1.375       .  S
C856        C857   1.405       .  A
C857        C858   1.405       .  A
C857        H861   1.081       .  S
C858        O862   1.375       .  S
O860        H864   0.992       .  S
O862        H863   0.993       .  S
C865        C866   1.405   1_554  A
C866        C867   1.400       .  A
C866        H871   1.083       .  S
C867        C868   1.410   1_556  A
C867        O872   1.372       .  S
C869        C870   1.399       .  A
C869        H873   1.084       .  S
C870        O874   1.371       .  S
O872        H876   0.992       .  S
O874        H875   0.992       .  S
C877        C882   1.413   1_554  A
C878        C879   1.399       .  A
C878        H883   1.082       .  S
C879        O884   1.372       .  S
C880        C881   1.402   1_554  A
C881        C882   1.393       .  A
C881        H885   1.084       .  S
C882        O886   1.370       .  S
O884        H888   0.992       .  S
O886        H887   0.992       .  S
C889        C890   1.409       .  A
C889        C894   1.416       .  A
C890        C891   1.401       .  A
C890        H895   1.082       .  S
C891        C892   1.409       .  A
C891        O896   1.372       .  S
C892        C893   1.403       .  A
C893        C894   1.401       .  A
C893        H897   1.084       .  S
C894        O898   1.371       .  S
O896        H900   0.992       .  S
O898        H899   0.992       .  S
C901        C902   1.407       .  A
C901        C906   1.414       .  A
C902        C903   1.404       .  A
C902        H907   1.082       .  S
C903        C904   1.410       .  A
C903        O908   1.372       .  S
C904        C905   1.401       .  A
C905        C906   1.398       .  A
C905        H909   1.084       .  S
C906        O910   1.371       .  S
O908        H912   0.992       .  S
O910        H911   0.992       .  S
C913        C914   1.405       .  A
C913        C918   1.413       .  A
C914        C915   1.401       .  A
C914        H919   1.081       .  S
C915        C916   1.414       .  A
C915        O920   1.374       .  S
C916        C917   1.406       .  A
C917        C918   1.404       .  A
C917        H921   1.083       .  S
C918        O922   1.375       .  S
O920        H924   0.993       .  S
O922        H923   0.992       .  S
C925        C926   1.404       .  A
C925        C930   1.415       .  A
C926        C927   1.399       .  A
C926        H931   1.082       .  S
C927        C928   1.415       .  A
C927        O932   1.374       .  S
C928        C929   1.406       .  A
C929        C930   1.408       .  A
C929        H933   1.082       .  S
C930        O934   1.375       .  S
O932        H936   0.992       .  S
O934        H935   0.992       .  S
C937        C942   1.413       .  A
C938        C939   1.398       .  A
C938        H943   1.082       .  S
C939        O944   1.372       .  S
C940        C941   1.404       .  A
C941        C942   1.400       .  A
C941        H945   1.084       .  S
C942        O946   1.370       .  S
O944        H948   0.992       .  S
O946        H947   0.992       .  S
C949        C950   1.407       .  A
C950        C951   1.399       .  A
C950        H955   1.083       .  S
C951        C952   1.409       .  A
C951        O956   1.372       .  S
C953        C954   1.402       .  A
C953        H957   1.084       .  S
C954        O958   1.371       .  S
O956        H960   0.992       .  S
O958        H959   0.993       .  S
C961        C962   1.403       .  A
C961        C966   1.408       .  A
C962        C963   1.401   1_545  A
C962        H967   1.083       .  S
C963        C964   1.412       .  A
C963        O968   1.371       .  S
C964        C965   1.405   1_565  A
C965        C966   1.400       .  A
C965        H969   1.083       .  S
C966        O970   1.372       .  S
O968        H972   0.992       .  S
O970        H971   0.992       .  S
C973        C974   1.406       .  A
C973        C978   1.413       .  A
C974        C975   1.400       .  A
C974        H979   1.082       .  S
C975        C976   1.409       .  A
C975        O980   1.372       .  S
C976        C977   1.403       .  A
C977        C978   1.398       .  A
C977        H981   1.084       .  S
C978        O982   1.371       .  S
O980        H984   0.992       .  S
O982        H983   0.992       .  S
C985        C986   1.404       .  A
C985        C990   1.411       .  A
C986        C987   1.399       .  A
C986        H991   1.083       .  S
C987        C988   1.410       .  A
C987        O992   1.372       .  S
C988        C989   1.403       .  A
C989        C990   1.400       .  A
C989        H993   1.084       .  S
C990        O994   1.372       .  S
O992        H996   0.992       .  S
O994        H995   0.992       .  S
C997        C998   1.403       .  A
C998        C999   1.402   1_545  A
C998       H1003   1.083       .  S
C999       C1000   1.413       .  A
C999       O1004   1.371       .  S
C1001      C1002   1.403       .  A
C1001      H1005   1.083       .  S
C1002      O1006   1.372       .  S
O1004      H1008   0.992       .  S
O1006      H1007   0.992       .  S
C1009      C1010   1.407       .  A
C1009      C1014   1.414       .  A
C1010      C1011   1.398       .  A
C1010      H1015   1.082       .  S
C1011      C1012   1.412       .  A
C1011      O1016   1.371       .  S
C1012      C1013   1.406       .  A
C1013      C1014   1.403       .  A
C1013      H1017   1.081       .  S
C1014      O1018   1.374       .  S
O1016      H1020   0.992       .  S
O1018      H1019   0.992       .  S
C1021      C1022   1.406       .  A
C1021      C1026   1.413       .  A
C1022      C1023   1.403       .  A
C1022      H1027   1.080       .  S
C1023      C1024   1.413       .  A
C1023      O1028   1.375       .  S
C1024      C1025   1.406       .  A
C1025      C1026   1.402       .  A
C1025      H1029   1.082       .  S
C1026      O1030   1.375       .  S
O1028      H1032   0.992       .  S
O1030      H1031   0.992       .  S
C1033      C1038   1.414       .  A
C1034      C1035   1.399       .  A
C1034      H1039   1.082       .  S
C1035      O1040   1.372       .  S
C1036      C1037   1.403       .  A
C1037      C1038   1.401       .  A
C1037      H1041   1.084       .  S
C1038      O1042   1.371       .  S
O1040      H1044   0.991       .  S
O1042      H1043   0.992       .  S
C1045      C1050   1.412       .  A
C1046      C1047   1.401       .  A
C1046      H1051   1.083       .  S
C1047      O1052   1.372       .  S
C1048      C1049   1.403       .  A
C1049      C1050   1.398       .  A
C1049      H1053   1.084       .  S
C1050      O1054   1.371       .  S
O1052      H1056   0.992   1_545  S
O1054      H1055   0.991       .  S
C1057      C1058   1.403       .  A
C1057      C1062   1.407   1_655  A
C1058      C1059   1.397   1_655  A
C1058      H1063   1.083       .  S
C1059      C1060   1.407       .  A
C1059      O1064   1.371   1_455  S
C1060      C1061   1.402       .  A
C1061      C1062   1.397       .  A
C1061      H1065   1.083       .  S
C1062      O1066   1.371       .  S
O1064      H1068   0.992   1_655  S
O1066      H1067   0.991       .  S
C1069      C1070   1.405       .  A
C1069      C1074   1.408       .  A
C1070      C1071   1.400       .  A
C1070      H1075   1.083       .  S
C1071      C1072   1.409       .  A
C1071      O1076   1.372       .  S
C1072      C1073   1.403       .  A
C1073      C1074   1.396       .  A
C1073      H1077   1.084       .  S
C1074      O1078   1.371       .  S
O1076      H1080   0.992   1_655  S
O1078      H1079   0.992       .  S
C1081      C1082   1.405       .  A
C1081      C1086   1.410       .  A
C1082      C1083   1.397       .  A
C1082      H1087   1.083       .  S
C1083      C1084   1.408       .  A
C1083      O1088   1.372       .  S
C1084      C1085   1.402       .  A
C1085      C1086   1.397       .  A
C1085      H1089   1.084       .  S
C1086      O1090   1.371       .  S
O1088      H1092   0.992       .  S
O1090      H1091   0.992       .  S
C1093      C1094   1.404   1_655  A
C1094      C1095   1.399       .  A
C1094      H1099   1.083       .  S
C1095      C1096   1.407       .  A
C1095      O1100   1.371       .  S
C1097      C1098   1.392   1_455  A
C1097      H1101   1.083       .  S
C1098      O1102   1.371       .  S
O1100      H1104   0.992       .  S
O1102      H1103   0.992       .  S
C1105      C1106   1.406       .  A
C1105      C1110   1.413       .  A
C1106      C1107   1.401       .  A
C1106      H1111   1.082       .  S
C1107      C1108   1.413       .  A
C1107      O1112   1.376       .  S
C1108      C1109   1.405       .  A
C1109      C1110   1.404       .  A
C1109      H1113   1.080       .  S
C1110      O1114   1.375       .  S
O1112      H1116   0.992       .  S
O1114      H1115   0.993       .  S
C1117      C1118   1.407       .  A
C1117      C1122   1.413       .  A
C1118      C1119   1.402       .  A
C1118      H1123   1.082       .  S
C1119      C1120   1.412       .  A
C1119      O1124   1.375       .  S
C1120      C1121   1.406       .  A
C1121      C1122   1.402       .  A
C1121      H1125   1.081       .  S
C1122      O1126   1.374       .  S
O1124      H1128   0.992       .  S
O1126      H1127   0.992       .  S
C1129      C1134   1.408       .  A
C1130      C1131   1.396       .  A
C1130      H1135   1.083       .  S
C1131      O1136   1.372       .  S
C1132      C1133   1.401       .  A
C1133      C1134   1.396       .  A
C1133      H1137   1.084       .  S
C1134      O1138   1.371       .  S
O1136      H1140   0.992       .  S
O1138      H1139   0.992       .  S
C1141      C1142   1.403   1_554  A
C1142      C1143   1.396       .  A
C1142      H1147   1.083       .  S
C1143      C1144   1.408   1_556  A
C1143      O1148   1.372       .  S
C1145      C1146   1.400       .  A
C1145      H1149   1.084       .  S
C1146      O1150   1.371       .  S
O1148      H1152   0.992       .  S
O1150      H1151   0.992       .  S
