geometry optimzed in LAMMPS
_audit_creation_date              2020-11-30 
_audit_creation_method            'lammps2cif' 
_symmetry_space_group_name_H-M    'P1' 
_symmetry_Int_Tables_number       1 
_symmetry_cell_setting            triclinic 
loop_ 
_symmetry_equiv_pos_as_xyz 
  x,y,z 
_cell_length_a                    28.32726097 
_cell_length_b                    28.060761041383238 
_cell_length_c                    27.303827795169457 
_cell_angle_alpha                 91.56746826106897 
_cell_angle_beta                  92.77804875530444 
_cell_angle_gamma                 88.27085558639088 
loop_ 
_atom_site_label 
_atom_site_type_symbol 
_atom_site_fract_x 
_atom_site_fract_y 
_atom_site_fract_z 
_atom_site_charge 
C1          C  0.87820700  0.36624499  0.04592625     0.31200
C2          C  0.87802164  0.36697949  0.27409604     0.31200
C3          C  0.91119074  0.40150910  0.02229763    -0.05000
C4          C  0.89821191  0.31993676  0.01882207    -0.05800
C5          C  0.83100750  0.37152733  0.01716592    -0.05600
C6          C  0.91107406  0.40181262  0.30310634    -0.05000
C7          C  0.89831925  0.32043031  0.29953597    -0.05800
C8          C  0.83089477  0.37212536  0.29887916    -0.05600
C9          C  0.95793227  0.40935300  0.29248733    -0.31000
N10         N  0.98447945  0.41890449  0.99989057     0.15500
C11         C  0.95819284  0.40913527  0.03766944    -0.31000
H12         H  0.97418866  0.40357394  0.07378330     0.17400
C13         C  0.92008790  0.27787347  0.28491323    -0.30000
N14         N  0.92937329  0.25057717  0.32445570     0.14200
C15         C  0.91921115  0.27675844  0.03182460    -0.30000
C16         C  0.78815621  0.35386064  0.28270957    -0.30300
N17         N  0.76068961  0.34789502  0.32051142     0.14700
H18         H  0.77781017  0.34371766  0.24564994     0.17300
C19         C  0.78847881  0.35256658  0.02800378    -0.30300
H20         H  0.77788913  0.34205751  0.06351904     0.17300
H21         H  0.92532980  0.26384493  0.06807658     0.17300
H22         H  0.97373151  0.40369352  0.25758856     0.17400
H23         H  0.92755740  0.26615712  0.24813423     0.17300
C24         C  0.87159965  0.37266501  0.10736752     0.31200
C25         C  0.87163442  0.37324059  0.21253437     0.31200
C26         C  0.90807791  0.40400810  0.13625517    -0.05000
C27         C  0.82640838  0.39559502  0.13196467    -0.05800
C28         C  0.87417495  0.32493344  0.13327461    -0.05600
C29         C  0.90812659  0.40421350  0.18875988    -0.05000
C30         C  0.82665364  0.39599180  0.18464129    -0.05800
C31         C  0.87398680  0.32524798  0.18492618    -0.05600
C32         C  0.91773715  0.45107787  0.20340582    -0.31000
N33         N  0.92823233  0.47713031  0.16534413     0.15500
C34         C  0.91764097  0.45083307  0.12491762    -0.31000
H35         H  0.91248242  0.46707501  0.08966646     0.17400
C36         C  0.78519735  0.41957475  0.19723702    -0.30000
N37         N  0.75845700  0.42979160  0.15621324     0.14200
C38         C  0.78428673  0.41850539  0.11686455    -0.30000
C39         C  0.85356555  0.28319453  0.19673048    -0.30300
N40         N  0.84713517  0.25531888  0.15650931     0.14700
H41         H  0.84312564  0.27307126  0.23242994     0.17300
C42         C  0.85391739  0.28266339  0.11794280    -0.30300
H43         H  0.84399985  0.27210475  0.08078132     0.17300
H44         H  0.77186495  0.42538509  0.07996865     0.17300
H45         H  0.91272850  0.46747721  0.23902452     0.17400
H46         H  0.77365767  0.42748359  0.23356352     0.17300
C47         C  0.36059005  0.06804050  0.04852154     0.31200
C48         C  0.36053093  0.07092319  0.27683221     0.31200
C49         C  0.38963300  0.02766683  0.02125420    -0.05000
C50         C  0.31296008  0.05967165  0.01921251    -0.05800
C51         C  0.38086912  0.11136333  0.02514872    -0.05600
C52         C  0.38920324  0.02891203  0.30189391    -0.05000
C53         C  0.31297857  0.06087477  0.30013797    -0.05800
C54         C  0.38053704  0.11310376  0.30706340    -0.05600
C55         C  0.40361254  0.98381155  0.28565869    -0.31000
N56         N  0.41757790  0.95786833  0.99135849     0.15500
C57         C  0.40452489  0.98195732  0.03264621    -0.31000
H58         H  0.40656056  0.96688268  0.06869729     0.17400
C59         C  0.28166078  0.02549543  0.28387661    -0.30000
N60         N  0.25836369  0.00868325  0.32048637     0.14200
C61         C  0.28153047  0.02387399  0.02814452    -0.30000
C62         C  0.41574341  0.14380992  0.29711836    -0.30300
N63         N  0.43279776  0.16495934  0.33896119     0.14700
H64         H  0.42920852  0.15025687  0.26179355     0.17300
C65         C  0.41681052  0.14039231  0.04252361    -0.30300
H66         H  0.43091902  0.14397651  0.07984537     0.17300
H67         H  0.27931536  0.00522258  0.06177182     0.17300
H68         H  0.40370797  0.97020647  0.24830576     0.17400
H69         H  0.28005681  0.00740776  0.24852809     0.17300
C70         C  0.35953823  0.07848362  0.21565816     0.31200
C71         C  0.35895499  0.07518263  0.11041130     0.31200
C72         C  0.40016861  0.05062929  0.19111666    -0.05000
C73         C  0.31351078  0.06248077  0.18729717    -0.05800
C74         C  0.36256921  0.12767791  0.18919950    -0.05600
C75         C  0.39979734  0.04860093  0.13968788    -0.05000
C76         C  0.31325794  0.05986687  0.13494932    -0.05800
C77         C  0.36143865  0.12613582  0.13665071    -0.05600
C78         C  0.44444669  0.03107021  0.12842256    -0.31000
N79         N  0.46975629  0.01858026  0.16996613     0.15500
C80         C  0.44532828  0.03532904  0.20812406    -0.31000
H81         H  0.46010504  0.03694764  0.24527771     0.17400
C82         C  0.26641239  0.07192959  0.12035837    -0.30000
N83         N  0.23826435  0.07601888  0.15827647     0.14200
C84         C  0.26723762  0.07722604  0.19814742    -0.30000
C85         C  0.35768711  0.17356189  0.12232490    -0.30300
N86         N  0.36135389  0.20306977  0.16231231     0.14700
H87         H  0.35321366  0.18640857  0.08546768     0.17300
C88         C  0.36118182  0.17572565  0.20246656    -0.30300
H89         H  0.36046689  0.19047036  0.23880999     0.17300
H90         H  0.25546168  0.09251381  0.23230368     0.17300
H91         H  0.45876087  0.02861841  0.09254266     0.17400
H92         H  0.25437434  0.08502975  0.08553708     0.17300
C93         C  0.56491949  0.86873144  0.05060759     0.31200
C94         C  0.56422261  0.86936704  0.27904340     0.31200
C95         C  0.51807141  0.88270224  0.02120000    -0.05000
C96         C  0.60200507  0.89878449  0.02656030    -0.05800
C97         C  0.57638401  0.81978851  0.02300057    -0.05600
C98         C  0.51666288  0.88007865  0.30268867    -0.05000
C99         C  0.59724353  0.90513357  0.30834276    -0.05800
C100        C  0.57755041  0.82051371  0.30401701    -0.05600
C101        C  0.47416246  0.90113441  0.28569532    -0.31000
N102        N  0.45264247  0.92095639  0.99154510     0.15500
C103        C  0.48373945  0.91635435  0.02987480    -0.31000
H104        H  0.49527398  0.94958985  0.04554721     0.17400
C105        C  0.64038038  0.92078684  0.29464136    -0.30000
N106        N  0.67350776  0.91317348  0.33086729     0.14200
C107        C  0.65089717  0.89441993  0.03379333    -0.30000
C108        C  0.57553713  0.77317373  0.28749984    -0.30300
N109        N  0.57140875  0.74408408  0.32594309     0.14700
H110        H  0.57273483  0.76105844  0.24977528     0.17300
C111        C  0.57365519  0.77195213  0.03418378    -0.30300
H112        H  0.57000567  0.75824565  0.06988117     0.17300
H113        H  0.66911923  0.86823702  0.05635257     0.17300
H114        H  0.46325152  0.90724824  0.24785402     0.17400
H115        H  0.64744660  0.93033429  0.25838892     0.17300
C116        C  0.56439949  0.87261923  0.21853066     0.31200
C117        C  0.56295894  0.87384980  0.11376347     0.31200
C118        C  0.55586767  0.92305099  0.19457924    -0.05000
C119        C  0.60968691  0.85290738  0.19334299    -0.05800
C120        C  0.52647597  0.84387492  0.18990156    -0.05600
C121        C  0.55222570  0.92258604  0.14172278    -0.05000
C122        C  0.61026093  0.86097593  0.14210448    -0.05800
C123        C  0.52696360  0.84276956  0.13814644    -0.05600
C124        C  0.51604156  0.95549610  0.13304834    -0.31000
N125        N  0.50878481  0.98531397  0.17126091     0.15500
C126        C  0.53045123  0.96383800  0.21072412    -0.31000
H127        H  0.52301947  0.97295168  0.24834074     0.17400
C128        C  0.65280795  0.88391599  0.13944558    -0.30000
N129        N  0.68224185  0.87494001  0.17782456     0.14200
C130        C  0.65627165  0.85469016  0.21110418    -0.30000
C131        C  0.50378461  0.80247101  0.12293977    -0.30300
N132        N  0.49163776  0.77846026  0.16257631     0.14700
H133        H  0.50117804  0.78863700  0.08617971     0.17300
C134        C  0.50178725  0.80546053  0.20302248    -0.30300
H135        H  0.49786940  0.79372845  0.23987432     0.17300
H136        H  0.66841304  0.84768388  0.24783262     0.17300
H137        H  0.48408669  0.94372738  0.11495552     0.17400
H138        H  0.65788189  0.91502196  0.11837381     0.17300
C139        C  0.07502823  0.55897677  0.28858868     0.31200
C140        C  0.07426553  0.55931678  0.06042811     0.31200
C141        C  0.03921293  0.52670302  0.31216407    -0.05000
C142        C  0.12031814  0.53775823  0.31718788    -0.05800
C143        C  0.07102213  0.60665358  0.31618551    -0.05600
C144        C  0.03883584  0.52695375  0.03133979    -0.05000
C145        C  0.11999544  0.53762032  0.03647355    -0.05800
C146        C  0.07048636  0.60685862  0.03440226    -0.05600
C147        C  0.03003560  0.47998005  0.04278560    -0.31000
N148        N  0.01989475  0.45340977  0.00243864     0.15500
C149        C  0.03044148  0.47954037  0.29764173    -0.31000
H150        H  0.03562217  0.46322738  0.26200712     0.17400
C151        C  0.16203721  0.51496736  0.05230415    -0.30000
N152        N  0.18847932  0.50488197  0.34656013     0.14200
C153        C  0.16238332  0.51560215  0.30537665    -0.30000
C154        C  0.08873240  0.64991390  0.04983738    -0.30300
N155        N  0.09374546  0.67791652  0.34484501     0.14700
H156        H  0.09877203  0.66043002  0.08685622     0.17300
C157        C  0.08987087  0.64948233  0.30471141    -0.30300
H158        H  0.10060593  0.65997284  0.26924224     0.17300
H159        H  0.17453545  0.50897213  0.26949871     0.17300
H160        H  0.03522899  0.46391533  0.07811899     0.17400
H161        H  0.17389063  0.50733216  0.08946725     0.17300
C162        C  0.06890070  0.56563327  0.22688299     0.31200
C163        C  0.06797563  0.56587003  0.12169313     0.31200
C164        C  0.03676477  0.52974032  0.19808484    -0.05000
C165        C  0.04714371  0.61172987  0.20101426    -0.05800
C166        C  0.11617162  0.56174417  0.20186426    -0.05600
C167        C  0.03641956  0.52982552  0.14555493    -0.05000
C168        C  0.04670177  0.61169553  0.14834610    -0.05800
C169        C  0.11543626  0.56222125  0.15014719    -0.05600
C170        C  0.98966142  0.52146211  0.13018082    -0.31000
N171        N  0.96360557  0.51158058  0.16795707     0.15500
C172        C  0.99007171  0.52137474  0.20869206    -0.31000
H173        H  0.97414811  0.52699077  0.24352564     0.17400
C174        C  0.02406407  0.65394331  0.13459731    -0.30000
N175        N  0.01422418  0.68076195  0.17494916     0.14200
C176        C  0.02481294  0.65432935  0.21492541    -0.30000
C177        C  0.15709680  0.58225711  0.13841814    -0.30300
N178        N  0.18531356  0.58762751  0.17871591     0.14700
H179        H  0.16681341  0.59295840  0.10264940     0.17300
C180        C  0.15895540  0.58076172  0.21739751    -0.30300
H181        H  0.17036808  0.59043175  0.25450186     0.17300
H182        H  0.01775471  0.66667931  0.25138435     0.17300
H183        H  0.97350098  0.52699895  0.09413733     0.17400
H184        H  0.01647174  0.66592306  0.09801554     0.17300
O185        O  0.03282539  0.96530295  0.28454620    -0.71700
O186        O  0.89689703  0.92570454  0.29424303    -0.72700
O187        O  0.94309129  0.01680660  0.28529367    -0.61300
O188        O  0.98924510  0.87809702  0.29558078    -0.69700
O189        O  0.00082486  0.89112905  0.04160829    -0.69300
O190        O  0.94852553  0.02641246  0.03186777    -0.60600
O191        O  0.90461497  0.93488464  0.04055816    -0.73100
O192        O  0.03950473  0.98048093  0.03056609    -0.71800
Cu193      Cu  0.96481355  0.94626908  0.28747441     1.04600
Cu194      Cu  0.97308001  0.95824937  0.03884430     1.04300
C195        C  0.05802026  0.97781587  0.32229620     0.94500
C196        C  0.87866584  0.92448059  0.33565356     0.93600
C197        C  0.94028295  0.04405186  0.32324389     0.85700
C198        C  0.00579029  0.86444941  0.33721463     0.92000
O199        O  0.99116030  0.91446696  0.20937414    -0.71700
O200        O  0.92869237  0.04724961  0.19928464    -0.72700
O201        O  0.89686649  0.95464441  0.20867176    -0.61300
O202        O  0.02486043  0.01280337  0.20229156    -0.69700
O203        O  0.01989521  0.00388303  0.12196154    -0.69300
O204        O  0.89170215  0.94164523  0.12930211    -0.60600
O205        O  0.92295784  0.03631980  0.11922111    -0.73100
O206        O  0.98687035  0.90569278  0.12950023    -0.71800
Cu207      Cu  0.96099716  0.98241740  0.20721266     1.04600
Cu208      Cu  0.95557458  0.97171000  0.12228259     1.04300
C209        C  0.99620000  0.88784489  0.17121118     0.94500
C210        C  0.91459444  0.06160866  0.15721415     0.93600
C211        C  0.87360961  0.93955795  0.17081500     0.85700
C212        C  0.04250069  0.01867177  0.16100241     0.92000
O213        O  0.50452607  0.51979151  0.29011422    -0.71700
O214        O  0.45354219  0.38729193  0.29872765    -0.72700
O215        O  0.41002788  0.48063937  0.29803717    -0.61300
O216        O  0.54317514  0.42388403  0.28944463    -0.69700
O217        O  0.55646465  0.43691396  0.03550582    -0.69300
O218        O  0.41901685  0.47948409  0.04496110    -0.60600
O219        O  0.47160380  0.39072705  0.04487842    -0.73100
O220        O  0.50725033  0.52804335  0.03665223    -0.72200
Cu221      Cu  0.47740231  0.45323332  0.29133262     1.04600
Cu222      Cu  0.48864434  0.45931752  0.04296465     1.04300
C223        C  0.51350833  0.54551694  0.32833170     0.94500
C224        C  0.45825468  0.36694866  0.33990017     0.93600
C225        C  0.39238179  0.48590068  0.34002861     0.85700
C226        C  0.57035540  0.42098992  0.32771531     0.92000
O227        O  0.40233848  0.51317815  0.20882585    -0.71700
O228        O  0.53659069  0.45858884  0.20330833    -0.72700
O229        O  0.49168073  0.55217819  0.20898729    -0.61300
O230        O  0.44181899  0.41842692  0.20485496    -0.69700
O231        O  0.43009819  0.42155745  0.12479491    -0.69300
O232        O  0.48951725  0.55358300  0.12865214    -0.60600
O233        O  0.52753780  0.45731819  0.12305076    -0.73100
O234        O  0.39702828  0.51982174  0.12842744    -0.71800
Cu235      Cu  0.46855071  0.48512280  0.20905413     1.04600
Cu236      Cu  0.46123947  0.48761902  0.12370857     1.04300
C237        C  0.37930441  0.52637862  0.16996691     0.94500
C238        C  0.55401652  0.45098113  0.16149567     0.93600
C239        C  0.49580381  0.57485477  0.17018201     0.85700
C240        C  0.42600061  0.39928627  0.16458195     0.92000
C241        C  0.23440191  0.57428384  0.17805732    -0.04100
C242        C  0.26663516  0.60519523  0.15967375    -0.01200
C243        C  0.31394636  0.58964229  0.15434803     0.03700
C244        C  0.33010083  0.54496173  0.17321611    -0.04100
C245        C  0.29748809  0.51553483  0.19395404    -0.01200
C246        C  0.24937522  0.52758048  0.19033658     0.03700
C247        C  0.25038800  0.65233768  0.14466355     0.38400
C248        C  0.31290492  0.47241668  0.21861552     0.38400
C249        C  0.21567788  0.48987975  0.19179631     0.36800
C250        C  0.34469905  0.62184568  0.13197524     0.36800
N251        N  0.18933439  0.45912153  0.19168401    -0.38000
N252        N  0.36517983  0.65169389  0.11478061    -0.38000
N253        N  0.32524867  0.43841033  0.23904470    -0.37500
N254        N  0.23787953  0.69004306  0.13257926    -0.37500
C255        C  0.00428105  0.83444085  0.17540341    -0.04100
C256        C  0.96729750  0.80710481  0.19225028    -0.01200
C257        C  0.96973254  0.75662321  0.19127824     0.03700
C258        C  0.01051105  0.73234004  0.17581708    -0.04100
C259        C  0.04939605  0.75900832  0.16348381    -0.01200
C260        C  0.04584747  0.80937829  0.16110123     0.03700
C261        C  0.92641657  0.83121153  0.21095055     0.38400
C262        C  0.09472398  0.73466444  0.15747892     0.38400
C263        C  0.08743166  0.83349413  0.14799705     0.36800
C264        C  0.93035816  0.72946276  0.20602563     0.36800
N265        N  0.12405095  0.84742749  0.13938892    -0.38000
N266        N  0.89887817  0.70773082  0.21768429    -0.38000
N267        N  0.13151518  0.71617234  0.15405055    -0.37500
N268        N  0.89415659  0.85139360  0.22622339    -0.37500
C269        C  0.33985097  0.49285829  0.34460604    -0.04100
C270        C  0.31274723  0.45295902  0.35480026    -0.01200
C271        C  0.26287375  0.45675489  0.35603904     0.03700
C272        C  0.23948140  0.50079547  0.34856202    -0.04100
C273        C  0.26619819  0.54146562  0.00893855    -0.01200
C274        C  0.31597314  0.53759613  0.00609467     0.03700
C275        C  0.33631488  0.40790070  0.36501165     0.38400
C276        C  0.24195812  0.58774230  0.00713559     0.38400
C277        C  0.34143275  0.58053936  0.99983408     0.36800
C278        C  0.23524172  0.41566740  0.36536272     0.36800
N279        N  0.35829515  0.61709189  0.99554178    -0.38000
N280        N  0.21292237  0.38310486  0.37320921    -0.38000
N281        N  0.22222510  0.62446076  0.00636613    -0.37500
N282        N  0.35490271  0.37206526  0.37495836    -0.37500
C283        C  0.07240893  0.72484274  0.34436610    -0.04100
C284        C  0.02258062  0.73068892  0.34239284    -0.01200
C285        C  0.00157089  0.77647484  0.34263590     0.03700
C286        C  0.02948358  0.81690703  0.34208551    -0.04100
C287        C  0.07948466  0.81085498  0.01292630    -0.01200
C288        C  0.10067015  0.76474305  0.01376650     0.03700
C289        C  0.99239187  0.68968246  0.34036127     0.38400
C290        C  0.11035095  0.85067379  0.01869699     0.38400
C291        C  0.15164563  0.75777235  0.01765614     0.36800
C292        C  0.95135992  0.78138612  0.34824938     0.36800
N293        N  0.19229991  0.75206664  0.02079390    -0.38000
N294        N  0.91148932  0.78259493  0.35497166    -0.38000
N295        N  0.13902195  0.87897142  0.02464898    -0.37500
N296        N  0.96775905  0.65743455  0.33855820    -0.37500
C297        C  0.49353590  0.72743540  0.16490877    -0.04100
C298        C  0.45497790  0.70374913  0.18168549    -0.01200
C299        C  0.45850664  0.65431702  0.18856105     0.03700
C300        C  0.49869916  0.62752621  0.17381654    -0.04100
C301        C  0.53945314  0.65204495  0.16325787    -0.01200
C302        C  0.53709248  0.70206103  0.15996754     0.03700
C303        C  0.41251639  0.73087153  0.19360388     0.38400
C304        C  0.58535459  0.62815314  0.16353809     0.38400
C305        C  0.58058928  0.72749268  0.15670806     0.36800
C306        C  0.42259552  0.63197821  0.21484710     0.36800
N307        N  0.61616447  0.74642914  0.15485215    -0.38000
N308        N  0.39405388  0.61501863  0.23696175    -0.38000
N309        N  0.62375967  0.61278938  0.16534375    -0.37500
N310        N  0.37867223  0.75263377  0.20309141    -0.37500
C311        C  0.73104488  0.88887672  0.18105778    -0.04100
C312        C  0.74453626  0.93313108  0.20234558    -0.01200
C313        C  0.79235406  0.94564582  0.20452811     0.03700
C314        C  0.82517026  0.92059633  0.17546892    -0.04100
C315        C  0.81086585  0.87819183  0.15063433    -0.01200
C316        C  0.76467263  0.86151732  0.15510820     0.03700
C317        C  0.70958110  0.96961355  0.21430788     0.38400
C318        C  0.84461213  0.84990613  0.12349153     0.38400
C319        C  0.75047377  0.81745258  0.13053226     0.36800
C320        C  0.80742922  0.98487342  0.23630033     0.36800
N321        N  0.73885160  0.78242505  0.11076045    -0.38000
N322        N  0.82034099  0.01576937  0.26186425    -0.38000
N323        N  0.87234038  0.82697633  0.10309929    -0.37500
N324        N  0.68302347  0.00062706  0.22258619    -0.37500
C325        C  0.55604929  0.69461909  0.32292241    -0.04100
C326        C  0.58241367  0.65805655  0.29881936    -0.01200
C327        C  0.56720594  0.60986884  0.29738831     0.03700
C328        C  0.52850913  0.59674161  0.32466689    -0.04100
C329        C  0.50244313  0.63349433  0.01466180    -0.01200
C330        C  0.51356039  0.68192790  0.01028947     0.03700
C331        C  0.62526155  0.67019045  0.27592255     0.38400
C332        C  0.46317210  0.62090395  0.04258200     0.38400
C333        C  0.47783746  0.71820613  0.02070255     0.36800
C334        C  0.59132647  0.57385946  0.26817078     0.36800
N335        N  0.44740199  0.74582263  0.02693017    -0.38000
N336        N  0.60997014  0.54469576  0.24462389    -0.38000
N337        N  0.43320581  0.60754698  0.06525232    -0.37500
N338        N  0.65950763  0.68034891  0.25776582    -0.37500
C339        C  0.72459135  0.91500341  0.33028930    -0.04100
C340        C  0.74747537  0.95449155  0.01860636    -0.01200
C341        C  0.79735820  0.95430927  0.02529141     0.03700
C342        C  0.82598235  0.91724972  0.33842990    -0.04100
C343        C  0.80242485  0.87638591  0.31870602    -0.01200
C344        C  0.75243775  0.87411101  0.31884633     0.03700
C345        C  0.71899822  0.99410582  0.03718499     0.38400
C346        C  0.82754367  0.83453956  0.30078466     0.38400
C347        C  0.73030339  0.82826450  0.31279150     0.36800
C348        C  0.81884772  0.99140234  0.05517041     0.36800
N349        N  0.71326870  0.79127369  0.30902007    -0.38000
N350        N  0.83546393  0.02059679  0.08041235    -0.38000
N351        N  0.84219389  0.79865843  0.28506466    -0.37500
N352        N  0.69607069  0.02551701  0.05222301    -0.37500
C353        C  0.37617921  0.25235840  0.16233372    -0.04100
C354        C  0.34485295  0.28981523  0.14734843    -0.01200
C355        C  0.35974786  0.33803506  0.14908103     0.03700
C356        C  0.40697318  0.34917540  0.16416108    -0.04100
C357        C  0.43667198  0.31160914  0.18189166    -0.01200
C358        C  0.42247044  0.26374258  0.17911050     0.03700
C359        C  0.29685757  0.27859019  0.13155721     0.38400
C360        C  0.47961154  0.32339067  0.20893250     0.38400
C361        C  0.45624200  0.22600774  0.19255343     0.36800
C362        C  0.32470982  0.37585978  0.14098769     0.36800
N363        N  0.48387894  0.19627719  0.20276929    -0.38000
N364        N  0.29535373  0.40483470  0.13432887    -0.38000
N365        N  0.51152019  0.33579087  0.23319491    -0.37500
N366        N  0.25853558  0.26943883  0.11890710    -0.37500
C367        C  0.18879012  0.06370379  0.15755079    -0.04100
C368        C  0.17523503  0.01729076  0.14260336    -0.01200
C369        C  0.12729849  0.00503988  0.14120423     0.03700
C370        C  0.09215838  0.03662392  0.15883292    -0.04100
C371        C  0.10572864  0.08319185  0.17442269    -0.01200
C372        C  0.15379406  0.09656061  0.17345891     0.03700
C373        C  0.21075952  0.98098560  0.13130936     0.38400
C374        C  0.07052106  0.11898672  0.18741394     0.38400
C375        C  0.16745996  0.14441658  0.18790301     0.36800
C376        C  0.11249246  0.96106884  0.11811449     0.36800
N377        N  0.17851538  0.18267555  0.19924610    -0.38000
N378        N  0.09575074  0.92860680  0.09817243    -0.38000
N379        N  0.04369002  0.14899709  0.19790413    -0.37500
N380        N  0.23870296  0.95126159  0.12313467    -0.37500
C381        C  0.43815871  0.21571644  0.34342106    -0.04100
C382        C  0.47701287  0.23546876  0.03622124    -0.01200
C383        C  0.48149335  0.28549865  0.03854099     0.03700
C384        C  0.45003482  0.31512996  0.34314634    -0.04100
C385        C  0.41065684  0.29448755  0.31817843    -0.01200
C386        C  0.40180267  0.24648272  0.32476598     0.03700
C387        C  0.51089130  0.20438687  0.06201399     0.38400
C388        C  0.37756941  0.32199214  0.28749658     0.38400
C389        C  0.35342468  0.23086970  0.32035604     0.36800
C390        C  0.52018505  0.30586369  0.06771128     0.36800
N391        N  0.31451209  0.21919751  0.31787076    -0.38000
N392        N  0.55149290  0.32259172  0.09000345    -0.38000
N393        N  0.34995068  0.34285170  0.26329007    -0.37500
N394        N  0.53753208  0.17936976  0.08301148    -0.37500
C395        C  0.20796181  0.00207950  0.31690614    -0.04100
C396        C  0.18806469  0.96334955  0.29038023    -0.01200
C397        C  0.13844722  0.95784710  0.28859322     0.03700
C398        C  0.10924907  0.98788771  0.31782431    -0.04100
C399        C  0.12971049  0.02761211  0.00894812    -0.01200
C400        C  0.17740154  0.03717996  0.00353363     0.03700
C401        C  0.21847842  0.92989460  0.26452521     0.38400
C402        C  0.10203893  0.06094654  0.03755244     0.38400
C403        C  0.19314121  0.08555501  0.01174916     0.36800
C404        C  0.11806558  0.91885324  0.26012769     0.36800
N405        N  0.20442549  0.12476780  0.01670326    -0.38000
N406        N  0.10095291  0.88705951  0.23909758    -0.38000
N407        N  0.08160076  0.08935656  0.06010185    -0.37500
N408        N  0.24270722  0.90327528  0.24359402    -0.37500
C409        C  0.86230785  0.20616715  0.15653360    -0.04100
C410        C  0.83029823  0.17016891  0.16362161    -0.01200
C411        C  0.84604312  0.12189853  0.16241348     0.03700
C412        C  0.89361747  0.11009661  0.15221089    -0.04100
C413        C  0.92384572  0.14643575  0.14114728    -0.01200
C414        C  0.91005798  0.19402460  0.14862391     0.03700
C415        C  0.78179597  0.18326561  0.17357174     0.38400
C416        C  0.96743677  0.13523172  0.11771700     0.38400
C417        C  0.94599404  0.22984298  0.15207694     0.36800
C418        C  0.81175608  0.08536942  0.16619275     0.36800
N419        N  0.97513736  0.25795042  0.15553448    -0.38000
N420        N  0.78186081  0.05829051  0.16701509    -0.38000
N421        N  0.00131043  0.12710648  0.09687081    -0.37500
N422        N  0.74313556  0.19378154  0.18189587    -0.37500
C423        C  0.70730002  0.43412250  0.15473684    -0.04100
C424        C  0.68322592  0.47524697  0.13746679    -0.01200
C425        C  0.63314921  0.47864308  0.13707483     0.03700
C426        C  0.60652394  0.44238118  0.15689140    -0.04100
C427        C  0.63096402  0.39962090  0.17064136    -0.01200
C428        C  0.68071999  0.39520610  0.16788953     0.03700
C429        C  0.71014226  0.51339917  0.11913032     0.38400
C430        C  0.60642430  0.35748042  0.18224275     0.38400
C431        C  0.70438310  0.34895137  0.17379064     0.36800
C432        C  0.60864206  0.51818111  0.11338200     0.36800
N433        N  0.72249925  0.31157309  0.17704793    -0.38000
N434        N  0.58874865  0.54862818  0.09263220    -0.38000
N435        N  0.59235696  0.32030647  0.18988255    -0.37500
N436        N  0.73178140  0.54369088  0.10420157    -0.37500
C437        C  0.93463087  0.09726563  0.31876224    -0.04100
C438        C  0.89222592  0.12288526  0.32887095    -0.01200
C439        C  0.89074386  0.17335175  0.32986819     0.03700
C440        C  0.93161454  0.19904716  0.32219770    -0.04100
C441        C  0.97307239  0.17408461  0.97610700    -0.01200
C442        C  0.97435659  0.12358114  0.97381856     0.03700
C443        C  0.84863756  0.09902923  0.33513925     0.38400
C444        C  0.01425147  0.20073369  0.96573351     0.38400
C445        C  0.01665893  0.09854827  0.95908459     0.36800
C446        C  0.84622959  0.19923031  0.33620262     0.36800
N447        N  0.05029606  0.07854912  0.94644189    -0.38000
N448        N  0.81041716  0.21949342  0.34049219    -0.38000
N449        N  0.04697966  0.22227386  0.95733661    -0.37500
N450        N  0.81123831  0.08469928  0.33928961    -0.37500
C451        C  0.61901456  0.40126288  0.32403413    -0.04100
C452        C  0.65691452  0.43268105  0.32803945    -0.01200
C453        C  0.70338259  0.41519680  0.32391658     0.03700
C454        C  0.71279309  0.36560955  0.31935732    -0.04100
C455        C  0.67559320  0.33395827  0.98209535    -0.01200
C456        C  0.62854484  0.35161186  0.98328453     0.03700
C457        C  0.64912409  0.48325180  0.33706591     0.38400
C458        C  0.68632495  0.28324222  0.97738007     0.38400
C459        C  0.59127339  0.31767817  0.97758500     0.36800
C460        C  0.74158570  0.44862389  0.32469692     0.36800
N461        N  0.56450485  0.28745726  0.97216432    -0.38000
N462        N  0.77151936  0.47586555  0.32548710    -0.38000
N463        N  0.69498719  0.24276642  0.97380598    -0.37500
N464        N  0.64614044  0.52385791  0.34497204    -0.37500
C465        C  0.87822204  0.36625407  0.37926257     0.31200
C466        C  0.87800960  0.36694153  0.60743247     0.31200
C467        C  0.91123391  0.40148663  0.35562537    -0.05000
C468        C  0.89818571  0.31993603  0.35216050    -0.05800
C469        C  0.83102428  0.37158067  0.35051271    -0.05600
C470        C  0.91105003  0.40178327  0.63644430    -0.05000
C471        C  0.89831472  0.32039855  0.63287434    -0.05800
C472        C  0.83087739  0.37207553  0.63221334    -0.05600
C473        C  0.95790898  0.40932641  0.62583184    -0.31000
N474        N  0.98452603  0.41885828  0.33320466     0.15500
C475        C  0.95824225  0.40908641  0.37098747    -0.31000
H476        H  0.97423644  0.40352805  0.40710300     0.17400
C477        C  0.92007520  0.27783954  0.61824705    -0.30000
N478        N  0.92934913  0.25053529  0.65778502     0.14200
C479        C  0.91921227  0.27677941  0.36518354    -0.30000
C480        C  0.78813421  0.35381822  0.61604302    -0.30300
N481        N  0.76066584  0.34786067  0.65384756     0.14700
H482        H  0.77777803  0.34369522  0.57897918     0.17300
C483        C  0.78849080  0.35263867  0.36136139    -0.30300
H484        H  0.77790793  0.34211776  0.39687503     0.17300
H485        H  0.92538466  0.26390058  0.40144660     0.17300
H486        H  0.97371816  0.40364996  0.59094083     0.17400
H487        H  0.92754458  0.26612725  0.58146824     0.17300
C488        C  0.87161568  0.37265137  0.44070374     0.31200
C489        C  0.87164010  0.37320351  0.54587003     0.31200
C490        C  0.90810942  0.40396173  0.46959461    -0.05000
C491        C  0.82643527  0.39560188  0.46530606    -0.05800
C492        C  0.87416757  0.32491258  0.46660018    -0.05600
C493        C  0.90814751  0.40416768  0.52210066    -0.05000
C494        C  0.82667444  0.39597756  0.51798151    -0.05800
C495        C  0.87397628  0.32521450  0.51825027    -0.05600
C496        C  0.91775340  0.45103566  0.53673977    -0.31000
N497        N  0.92825312  0.47708208  0.49867556     0.15500
C498        C  0.91768333  0.45077838  0.45825151    -0.31000
H499        H  0.91253052  0.46701702  0.42299864     0.17400
C500        C  0.78522927  0.41957015  0.53058605    -0.30000
N501        N  0.75850013  0.42982003  0.48956567     0.14200
C502        C  0.78433067  0.41854970  0.45021348    -0.30000
C503        C  0.85356756  0.28315014  0.53004253    -0.30300
N504        N  0.84714989  0.25528131  0.48981213     0.14700
H505        H  0.84313305  0.27301284  0.56573930     0.17300
C506        C  0.85392198  0.28264134  0.45125560    -0.30300
H507        H  0.84400338  0.27209458  0.41409317     0.17300
H508        H  0.77191918  0.42546558  0.41331939     0.17300
H509        H  0.91272943  0.46744354  0.57235182     0.17400
H510        H  0.77368772  0.42746256  0.56691478     0.17300
C511        C  0.36061801  0.06803107  0.38187090     0.31200
C512        C  0.36058031  0.07098671  0.61017728     0.31200
C513        C  0.38962770  0.02763040  0.35459964    -0.05000
C514        C  0.31298040  0.05968064  0.35257716    -0.05800
C515        C  0.38091547  0.11133499  0.35848159    -0.05600
C516        C  0.38924391  0.02896983  0.63523208    -0.05000
C517        C  0.31301614  0.06092014  0.63345786    -0.05800
C518        C  0.38057759  0.11316164  0.64043238    -0.05600
C519        C  0.40366631  0.98387835  0.61898769    -0.31000
N520        N  0.41754430  0.95781321  0.32470855     0.15500
C521        C  0.40450949  0.98191740  0.36599699    -0.31000
H522        H  0.40655826  0.96685529  0.40205439     0.17400
C523        C  0.28170052  0.02554062  0.61717527    -0.30000
N524        N  0.25837676  0.00873144  0.65376639     0.14200
C525        C  0.28156585  0.02387381  0.36152021    -0.30000
C526        C  0.41579883  0.14386875  0.63052575    -0.30300
N527        N  0.43284340  0.16499483  0.67239094     0.14700
H528        H  0.42926757  0.15034294  0.59520868     0.17300
C529        C  0.41684391  0.14038454  0.37584633    -0.30300
H530        H  0.43095042  0.14399006  0.41316711     0.17300
H531        H  0.27937158  0.00521440  0.39514729     0.17300
H532        H  0.40376833  0.97027860  0.58163366     0.17400
H533        H  0.28011445  0.00745010  0.58182756     0.17300
C534        C  0.35960137  0.07854890  0.54900777     0.31200
C535        C  0.35898743  0.07519731  0.44376079     0.31200
C536        C  0.40022542  0.05068344  0.52446629    -0.05000
C537        C  0.31356549  0.06255022  0.52066756    -0.05800
C538        C  0.36263127  0.12772878  0.52252952    -0.05600
C539        C  0.39983621  0.04862881  0.47303783    -0.05000
C540        C  0.31329958  0.05988790  0.46832427    -0.05800
C541        C  0.36147731  0.12616388  0.46997844    -0.05600
C542        C  0.44447172  0.03107193  0.46176126    -0.31000
N543        N  0.46979629  0.01860215  0.50330251     0.15500
C544        C  0.44539009  0.03538575  0.54146376    -0.31000
H545        H  0.46017621  0.03701536  0.57861412     0.17400
C546        C  0.26644469  0.07191744  0.45374269    -0.30000
N547        N  0.23830823  0.07604888  0.49166926     0.14200
C548        C  0.26729943  0.07732153  0.53152207    -0.30000
C549        C  0.35771851  0.17358390  0.45563474    -0.30300
N550        N  0.36141026  0.20310533  0.49561098     0.14700
H551        H  0.35323219  0.18641504  0.41877208     0.17300
C552        C  0.36126477  0.17577856  0.53578004    -0.30300
H553        H  0.36059332  0.19054001  0.57212144     0.17300
H554        H  0.25553741  0.09264348  0.56567059     0.17300
H555        H  0.45876627  0.02858759  0.42587347     0.17400
H556        H  0.25439754  0.08499127  0.41892164     0.17300
C557        C  0.56491868  0.86873836  0.38394833     0.31200
C558        C  0.56423541  0.86937466  0.61237356     0.31200
C559        C  0.51805672  0.88266470  0.35454032    -0.05000
C560        C  0.60197664  0.89883245  0.35990353    -0.05800
C561        C  0.57642734  0.81980583  0.35634627    -0.05600
C562        C  0.51667770  0.88010092  0.63601396    -0.05000
C563        C  0.59726842  0.90512449  0.64167507    -0.05800
C564        C  0.57754510  0.82051761  0.63734156    -0.05600
C565        C  0.47418971  0.90117763  0.61901818    -0.31000
N566        N  0.45260386  0.92089250  0.32489130     0.15500
C567        C  0.48369472  0.91628316  0.36322636    -0.31000
H568        H  0.49521021  0.94951830  0.37890543     0.17400
C569        C  0.64041562  0.92074859  0.62797448    -0.30000
N570        N  0.67353475  0.91310697  0.66419892     0.14200
C571        C  0.65087301  0.89451965  0.36713892    -0.30000
C572        C  0.57556087  0.77318284  0.62081113    -0.30300
N573        N  0.57142140  0.74408466  0.65924370     0.14700
H574        H  0.57277709  0.76107651  0.58308302     0.17300
C575        C  0.57365888  0.77197354  0.36752787    -0.30300
H576        H  0.56999595  0.75827149  0.40322299     0.17300
H577        H  0.66910898  0.86831887  0.38966302     0.17300
H578        H  0.46327882  0.90729139  0.58117669     0.17400
H579        H  0.64749373  0.93029539  0.59172430     0.17300
C580        C  0.56441004  0.87262716  0.55186590     0.31200
C581        C  0.56296003  0.87384984  0.44710385     0.31200
C582        C  0.55589900  0.92306154  0.52791455    -0.05000
C583        C  0.60968586  0.85288925  0.52667602    -0.05800
C584        C  0.52646666  0.84390034  0.52324816    -0.05600
C585        C  0.55225001  0.92259219  0.47505909    -0.05000
C586        C  0.61025809  0.86094916  0.47543833    -0.05800
C587        C  0.52694918  0.84278741  0.47149222    -0.05600
C588        C  0.51606467  0.95550238  0.46638809    -0.31000
N589        N  0.50882036  0.98532948  0.50459674     0.15500
C590        C  0.53049099  0.96385580  0.54405873    -0.31000
H591        H  0.52306679  0.97297611  0.58167594     0.17400
C592        C  0.65282157  0.88385481  0.47277315    -0.30000
N593        N  0.68226326  0.87484624  0.51113636     0.14200
C594        C  0.65627690  0.85463633  0.54443022    -0.30000
C595        C  0.50378738  0.80247332  0.45630170    -0.30300
N596        N  0.49165224  0.77846610  0.49594532     0.14700
H597        H  0.50118880  0.78862883  0.41954719     0.17300
C598        C  0.50179267  0.80548042  0.53638190    -0.30300
H599        H  0.49788543  0.79375343  0.57323723     0.17300
H600        H  0.66841519  0.84763706  0.58116034     0.17300
H601        H  0.48410139  0.94372017  0.44832466     0.17400
H602        H  0.65789278  0.91498761  0.45174165     0.17300
C603        C  0.07502666  0.55893484  0.62191589     0.31200
C604        C  0.07423263  0.55932178  0.39375882     0.31200
C605        C  0.03920775  0.52667079  0.64549777    -0.05000
C606        C  0.12031690  0.53770582  0.65050352    -0.05800
C607        C  0.07103274  0.60661090  0.64951223    -0.05600
C608        C  0.03882075  0.52694359  0.36466466    -0.05000
C609        C  0.11997192  0.53764927  0.36981069    -0.05800
C610        C  0.07043349  0.60687045  0.36774140    -0.05600
C611        C  0.03004039  0.47996365  0.37610516    -0.31000
N612        N  0.01991811  0.45338965  0.33575516     0.15500
C613        C  0.03042078  0.47951092  0.63098005    -0.31000
H614        H  0.03559327  0.46319364  0.59534556     0.17400
C615        C  0.16201656  0.51500816  0.38564600    -0.30000
N616        N  0.18847730  0.50482371  0.67986148     0.14200
C617        C  0.16236780  0.51553862  0.63870097    -0.30000
C618        C  0.08868303  0.64992500  0.38318113    -0.30300
N619        N  0.09377460  0.67786543  0.67817069     0.14700
H620        H  0.09872988  0.66043217  0.42019985     0.17300
C621        C  0.08988833  0.64943444  0.63803621    -0.30300
H622        H  0.10061911  0.65992415  0.60256482     0.17300
H623        H  0.17451989  0.50889356  0.60278184     0.17300
H624        H  0.03523169  0.46390004  0.41143928     0.17400
H625        H  0.17385597  0.50733810  0.42280366     0.17300
C626        C  0.06889683  0.56559902  0.56021087     0.31200
C627        C  0.06795147  0.56586054  0.45502236     0.31200
C628        C  0.03676297  0.52970809  0.53141126    -0.05000
C629        C  0.04712813  0.61169820  0.53435429    -0.05800
C630        C  0.11616384  0.56171576  0.53518077    -0.05600
C631        C  0.03641155  0.52980253  0.47888085    -0.05000
C632        C  0.04667405  0.61167419  0.48168627    -0.05800
C633        C  0.11541548  0.56221689  0.48346589    -0.05600
C634        C  0.98965580  0.52143715  0.46350983    -0.31000
N635        N  0.96360431  0.51155206  0.50128758     0.15500
C636        C  0.99007187  0.52134425  0.54202071    -0.31000
H637        H  0.97414839  0.52696463  0.57685351     0.17400
C638        C  0.02403266  0.65392207  0.46794776    -0.30000
N639        N  0.01420980  0.68073535  0.50830689     0.14200
C640        C  0.02480333  0.65429604  0.54827709    -0.30000
C641        C  0.15707427  0.58225224  0.47173381    -0.30300
N642        N  0.18531293  0.58756866  0.51202109     0.14700
H643        H  0.16677779  0.59298352  0.43597154     0.17300
C644        C  0.15896601  0.58069531  0.55071024    -0.30300
H645        H  0.17039595  0.59034420  0.58781286     0.17300
H646        H  0.01775696  0.66664291  0.58473938     0.17300
H647        H  0.97349356  0.52697365  0.42746664     0.17400
H648        H  0.01642867  0.66590752  0.43136753     0.17300
O649        O  0.03285136  0.96523747  0.61787970    -0.71700
O650        O  0.89691463  0.92567824  0.62759046    -0.72700
O651        O  0.94313493  0.01675919  0.61863647    -0.61300
O652        O  0.98925104  0.87803786  0.62892375    -0.69700
O653        O  0.00083508  0.89113996  0.37491672    -0.69300
O654        O  0.94851114  0.02639865  0.36521246    -0.60600
O655        O  0.90461343  0.93485461  0.37385594    -0.73100
O656        O  0.03950214  0.98049192  0.36392508    -0.71800
Cu657      Cu  0.96483673  0.94621829  0.62081743     1.04600
Cu658      Cu  0.97307640  0.95824387  0.37217010     1.04300
C659        C  0.05804439  0.97777849  0.65561957     0.94500
C660        C  0.87868603  0.92444585  0.66900195     0.93600
C661        C  0.94031968  0.04400581  0.65658473     0.85700
C662        C  0.00580470  0.86439054  0.67055436     0.92000
O663        O  0.99117955  0.91442804  0.54272463    -0.71700
O664        O  0.92873406  0.04721671  0.53262949    -0.72700
O665        O  0.89688363  0.95459607  0.54199282    -0.61300
O666        O  0.02489229  0.01276329  0.53567476    -0.69700
O667        O  0.01997485  0.00383157  0.45534617    -0.69300
O668        O  0.89175825  0.94157925  0.46262488    -0.60600
O669        O  0.92304817  0.03628396  0.45256703    -0.73100
O670        O  0.98694046  0.90564979  0.46284883    -0.71800
Cu671      Cu  0.96102285  0.98237618  0.54056172     1.04600
Cu672      Cu  0.95564730  0.97166189  0.45563266     1.04300
C673        C  0.99624111  0.88780606  0.50456585     0.94500
C674        C  0.91467708  0.06158342  0.49055004     0.93600
C675        C  0.87364515  0.93949039  0.50413046     0.85700
C676        C  0.04255874  0.01862619  0.49439793     0.92000
O677        O  0.50455976  0.51976445  0.62339802    -0.71700
O678        O  0.45351848  0.38729868  0.63210273    -0.72700
O679        O  0.41003279  0.48065496  0.63135828    -0.61300
O680        O  0.54315433  0.42384810  0.62277269    -0.69700
O681        O  0.55644987  0.43691628  0.36884323    -0.69300
O682        O  0.41900870  0.47948981  0.37830743    -0.60600
O683        O  0.47158571  0.39072206  0.37818380    -0.73100
O684        O  0.50724362  0.52804957  0.37002713    -0.72200
Cu685      Cu  0.47739963  0.45322258  0.62465852     1.04600
Cu686      Cu  0.48863205  0.45931740  0.37630660     1.04300
C687        C  0.51353317  0.54552125  0.66159451     0.94500
C688        C  0.45824632  0.36698623  0.67329136     0.93600
C689        C  0.39238803  0.48593324  0.67334910     0.85700
C690        C  0.57034858  0.42100294  0.66103623     0.92000
O691        O  0.40235503  0.51316252  0.54213739    -0.71700
O692        O  0.53663281  0.45861133  0.53665035    -0.72700
O693        O  0.49170814  0.55218617  0.54232088    -0.61300
O694        O  0.44187058  0.41843991  0.53818641    -0.69700
O695        O  0.43017618  0.42157525  0.45812297    -0.69300
O696        O  0.48958418  0.55360226  0.46199184    -0.60600
O697        O  0.52760189  0.45735418  0.45639018    -0.73100
O698        O  0.39708036  0.51982773  0.46174315    -0.71800
Cu699      Cu  0.46858483  0.48513152  0.54238322     1.04600
Cu700      Cu  0.46130446  0.48763961  0.45703838     1.04300
C701        C  0.37932791  0.52635654  0.50327146     0.94500
C702        C  0.55407025  0.45101633  0.49484080     0.93600
C703        C  0.49586074  0.57486545  0.50352574     0.85700
C704        C  0.42606656  0.39930376  0.49790759     0.92000
C705        C  0.23439729  0.57421119  0.51132499    -0.04100
C706        C  0.26662516  0.60512745  0.49294365    -0.01200
C707        C  0.31394342  0.58959169  0.48763235     0.03700
C708        C  0.33010774  0.54491154  0.50649486    -0.04100
C709        C  0.29749354  0.51547084  0.52721614    -0.01200
C710        C  0.24937609  0.52750710  0.52359424     0.03700
C711        C  0.25036863  0.65227156  0.47794897     0.38400
C712        C  0.31291839  0.47237988  0.55192113     0.38400
C713        C  0.21567799  0.48980717  0.52507286     0.36800
C714        C  0.34469815  0.62183431  0.46532038     0.36800
N715        N  0.18932887  0.45905578  0.52497715    -0.38000
N716        N  0.36516778  0.65172445  0.44818360    -0.38000
N717        N  0.32526527  0.43839897  0.57239301    -0.37500
N718        N  0.23784757  0.68997825  0.46588114    -0.37500
C719        C  0.00431301  0.83440706  0.50876702    -0.04100
C720        C  0.96733536  0.80708486  0.52564527    -0.01200
C721        C  0.96976019  0.75660557  0.52468449     0.03700
C722        C  0.01051689  0.73231236  0.50918440    -0.04100
C723        C  0.04940288  0.75896848  0.49682685    -0.01200
C724        C  0.04586463  0.80933739  0.49444168     0.03700
C725        C  0.92646232  0.83120166  0.54434824     0.38400
C726        C  0.09472668  0.73461758  0.49082283     0.38400
C727        C  0.08744489  0.83344955  0.48131851     0.36800
C728        C  0.93040188  0.72945869  0.53949594     0.36800
N729        N  0.12405810  0.84738836  0.47269696    -0.38000
N730        N  0.89893578  0.70774055  0.55121374    -0.38000
N731        N  0.13151726  0.71612230  0.48740183    -0.37500
N732        N  0.89420283  0.85138820  0.55961529    -0.37500
C733        C  0.33985456  0.49287215  0.67792586    -0.04100
C734        C  0.31277168  0.45296795  0.68815709    -0.01200
C735        C  0.26289591  0.45673771  0.68938357     0.03700
C736        C  0.23948013  0.50075871  0.68186085    -0.04100
C737        C  0.26621669  0.54155018  0.34234171    -0.01200
C738        C  0.31599066  0.53766170  0.33949400     0.03700
C739        C  0.33636450  0.40793378  0.69842221     0.38400
C740        C  0.24199919  0.58783951  0.34057272     0.38400
C741        C  0.34147240  0.58059612  0.33325602     0.36800
C742        C  0.23528768  0.41564531  0.69875357     0.36800
N743        N  0.35835756  0.61713958  0.32897707    -0.38000
N744        N  0.21299081  0.38307810  0.70664139    -0.38000
N745        N  0.22229583  0.62457415  0.33982962    -0.37500
N746        N  0.35497683  0.37211995  0.70840448    -0.37500
C747        C  0.07243122  0.72478685  0.67770163    -0.04100
C748        C  0.02260223  0.73062710  0.67572861    -0.01200
C749        C  0.00158879  0.77641117  0.67597294     0.03700
C750        C  0.02949868  0.81684677  0.67542146    -0.04100
C751        C  0.07950611  0.81087410  0.34621123    -0.01200
C752        C  0.10067492  0.76475526  0.34707403     0.03700
C753        C  0.99241515  0.68961824  0.67372217     0.38400
C754        C  0.11038491  0.85068481  0.35196184     0.38400
C755        C  0.15164942  0.75777047  0.35093826     0.36800
C756        C  0.95137862  0.78131113  0.68159779     0.36800
N757        N  0.19230418  0.75206264  0.35405133    -0.38000
N758        N  0.91151076  0.78249000  0.68833414    -0.38000
N759        N  0.13906424  0.87897501  0.35790290    -0.37500
N760        N  0.96777960  0.65737255  0.67195153    -0.37500
C761        C  0.49356884  0.72744211  0.49829412    -0.04100
C762        C  0.45502942  0.70374703  0.51510166    -0.01200
C763        C  0.45856227  0.65431052  0.52194328     0.03700
C764        C  0.49875570  0.62753386  0.50717872    -0.04100
C765        C  0.53950439  0.65206401  0.49662399    -0.01200
C766        C  0.53712797  0.70207867  0.49332981     0.03700
C767        C  0.41258718  0.73086593  0.52709037     0.38400
C768        C  0.58541584  0.62819105  0.49690854     0.38400
C769        C  0.58061457  0.72751937  0.49003517     0.36800
C770        C  0.42264367  0.63194133  0.54819292     0.36800
N771        N  0.61618474  0.74645825  0.48814611    -0.38000
N772        N  0.39410117  0.61494224  0.57027405    -0.38000
N773        N  0.62383069  0.61285297  0.49871637    -0.37500
N774        N  0.37876425  0.75263174  0.53664265    -0.37500
C775        C  0.73106896  0.88878361  0.51436809    -0.04100
C776        C  0.74455225  0.93304989  0.53562643    -0.01200
C777        C  0.79236979  0.94556796  0.53781825     0.03700
C778        C  0.82520071  0.92051467  0.50877562    -0.04100
C779        C  0.81090598  0.87808698  0.48397060    -0.01200
C780        C  0.76470591  0.86141475  0.48843964     0.03700
C781        C  0.70958511  0.96953878  0.54753500     0.38400
C782        C  0.84467043  0.84976052  0.45689084     0.38400
C783        C  0.75050436  0.81734371  0.46387771     0.36800
C784        C  0.80742948  0.98478781  0.56960788     0.36800
N785        N  0.73886749  0.78231462  0.44411901    -0.38000
N786        N  0.82031874  0.01567734  0.59519319    -0.38000
N787        N  0.87240348  0.82677899  0.43655959    -0.37500
N788        N  0.68300836  0.00054989  0.55575998    -0.37500
C789        C  0.55606362  0.69462137  0.65619587    -0.04100
C790        C  0.58245457  0.65806361  0.63211723    -0.01200
C791        C  0.56724488  0.60987519  0.63065888     0.03700
C792        C  0.52852208  0.59674600  0.65789974    -0.04100
C793        C  0.50242945  0.63352806  0.34806774    -0.01200
C794        C  0.51354351  0.68196088  0.34367503     0.03700
C795        C  0.62533701  0.67020638  0.60928903     0.38400
C796        C  0.46318225  0.62094353  0.37602340     0.38400
C797        C  0.47782295  0.71824029  0.35409488     0.36800
C798        C  0.59138918  0.57387127  0.60145633     0.36800
N799        N  0.44738539  0.74585302  0.36032956    -0.38000
N800        N  0.61005377  0.54471693  0.57791555    -0.38000
N801        N  0.43323355  0.60759509  0.39872276    -0.37500
N802        N  0.65961034  0.68038382  0.59119524    -0.37500
C803        C  0.72461590  0.91494357  0.66363429    -0.04100
C804        C  0.74749150  0.95456237  0.35191836    -0.01200
C805        C  0.79737842  0.95433491  0.35859068     0.03700
C806        C  0.82600298  0.91720896  0.67177714    -0.04100
C807        C  0.80245296  0.87634583  0.65203696    -0.01200
C808        C  0.75246591  0.87406484  0.65216233     0.03700
C809        C  0.71905885  0.99420606  0.37050318     0.38400
C810        C  0.82758060  0.83449973  0.63412907     0.38400
C811        C  0.73033198  0.82821889  0.64609663     0.36800
C812        C  0.81891191  0.99138809  0.38848705     0.36800
N813        N  0.71328650  0.79123333  0.64232636    -0.38000
N814        N  0.83558883  0.02053790  0.41374053    -0.38000
N815        N  0.84224084  0.79861787  0.61842118    -0.37500
N816        N  0.69617477  0.02564684  0.38554845    -0.37500
C817        C  0.37624401  0.25238844  0.49561095    -0.04100
C818        C  0.34492921  0.28984463  0.48059874    -0.01200
C819        C  0.35981972  0.33806448  0.48236653     0.03700
C820        C  0.40703704  0.34919975  0.49747902    -0.04100
C821        C  0.43672576  0.31163378  0.51522468    -0.01200
C822        C  0.42252465  0.26377000  0.51242453     0.03700
C823        C  0.29695214  0.27861943  0.46473597     0.38400
C824        C  0.47965356  0.32340588  0.54229414     0.38400
C825        C  0.45628750  0.22603330  0.52588526     0.36800
C826        C  0.32478038  0.37589036  0.47428321     0.36800
N827        N  0.48391555  0.19629983  0.53611725    -0.38000
N828        N  0.29541869  0.40486070  0.46762912    -0.38000
N829        N  0.51155998  0.33578063  0.56657562    -0.37500
N830        N  0.25864639  0.26946872  0.45202190    -0.37500
C831        C  0.18884351  0.06369904  0.49098492    -0.04100
C832        C  0.17530943  0.01726931  0.47607524    -0.01200
C833        C  0.12737574  0.00500446  0.47465841     0.03700
C834        C  0.09221825  0.03658519  0.49225801    -0.04100
C835        C  0.10576828  0.08316991  0.50781375    -0.01200
C836        C  0.15382870  0.09655641  0.50684895     0.03700
C837        C  0.21084831  0.98097575  0.46479077     0.38400
C838        C  0.07054516  0.11897319  0.52073828     0.38400
C839        C  0.16746179  0.14444301  0.52120877     0.36800
C840        C  0.11258821  0.96105239  0.45151236     0.36800
N841        N  0.17848222  0.18273090  0.53247611    -0.38000
N842        N  0.09587659  0.92861221  0.43149899    -0.38000
N843        N  0.04371220  0.14899942  0.53117785    -0.37500
N844        N  0.23880463  0.95126499  0.45661404    -0.37500
C845        C  0.43816785  0.21575745  0.67689209    -0.04100
C846        C  0.47703933  0.23546758  0.36947860    -0.01200
C847        C  0.48150822  0.28549872  0.37179976     0.03700
C848        C  0.45001783  0.31517351  0.67658625    -0.04100
C849        C  0.41065259  0.29451339  0.65161250    -0.01200
C850        C  0.40181520  0.24650503  0.65819764     0.03700
C851        C  0.51095013  0.20438820  0.39523045     0.38400
C852        C  0.37757410  0.32199921  0.62090165     0.38400
C853        C  0.35345077  0.23085789  0.65371962     0.36800
C854        C  0.52020734  0.30586699  0.40095503     0.36800
N855        N  0.31454986  0.21915050  0.65117958    -0.38000
N856        N  0.55152386  0.32259484  0.42323282    -0.38000
N857        N  0.34996965  0.34284267  0.59666309    -0.37500
N858        N  0.53761769  0.17936982  0.41619097    -0.37500
C859        C  0.20797297  0.00212379  0.65016475    -0.04100
C860        C  0.18808391  0.96338278  0.62364871    -0.01200
C861        C  0.13846971  0.95785358  0.62188522     0.03700
C862        C  0.10926822  0.98787744  0.65113089    -0.04100
C863        C  0.12973521  0.02760813  0.34238281    -0.01200
C864        C  0.17742951  0.03716737  0.33698698     0.03700
C865        C  0.21850042  0.92993010  0.59779505     0.38400
C866        C  0.10207155  0.06093708  0.37099667     0.38400
C867        C  0.19317263  0.08553857  0.34522290     0.36800
C868        C  0.11809903  0.91884614  0.59343065     0.36800
N869        N  0.20445990  0.12474917  0.35019340    -0.38000
N870        N  0.10099855  0.88704001  0.57241005    -0.38000
N871        N  0.08165633  0.08935540  0.39355607    -0.37500
N872        N  0.24272298  0.90330280  0.57686628    -0.37500
C873        C  0.86234139  0.20613320  0.48981906    -0.04100
C874        C  0.83032977  0.17011552  0.49681643    -0.01200
C875        C  0.84610622  0.12185409  0.49566632     0.03700
C876        C  0.89369888  0.11007220  0.48553049    -0.04100
C877        C  0.92391910  0.14642784  0.47449118    -0.01200
C878        C  0.91010865  0.19401201  0.48197269     0.03700
C879        C  0.78178137  0.18318334  0.50658645     0.38400
C880        C  0.96749985  0.13525282  0.45103619     0.38400
C881        C  0.94602928  0.22984551  0.48548505     0.36800
C882        C  0.81184430  0.08530613  0.49946719     0.36800
N883        N  0.97515608  0.25796794  0.48900680    -0.38000
N884        N  0.78197215  0.05820486  0.50031467    -0.38000
N885        N  0.00136066  0.12716545  0.43015784    -0.37500
N886        N  0.74307751  0.19367703  0.51474759    -0.37500
C887        C  0.70734547  0.43415347  0.48808583    -0.04100
C888        C  0.68328040  0.47529146  0.47084079    -0.01200
C889        C  0.63320544  0.47869484  0.47045221     0.03700
C890        C  0.60657675  0.44242331  0.49024603    -0.04100
C891        C  0.63100460  0.39964537  0.50395316    -0.01200
C892        C  0.68075969  0.39522600  0.50120108     0.03700
C893        C  0.71020479  0.51343999  0.45250826     0.38400
C894        C  0.60644352  0.35749901  0.51549543     0.38400
C895        C  0.70441346  0.34895988  0.50704734     0.36800
C896        C  0.60870069  0.51823729  0.44676466     0.36800
N897        N  0.72252596  0.31157560  0.51025757    -0.38000
N898        N  0.58880226  0.54868061  0.42601326    -0.38000
N899        N  0.59233290  0.32033142  0.52308497    -0.37500
N900        N  0.73185544  0.54372295  0.43757938    -0.37500
C901        C  0.93465551  0.09721894  0.65209633    -0.04100
C902        C  0.89224957  0.12282643  0.66222586    -0.01200
C903        C  0.89075457  0.17329323  0.66323651     0.03700
C904        C  0.93160451  0.19900356  0.65551831    -0.04100
C905        C  0.97306635  0.17409633  0.30952826    -0.01200
C906        C  0.97435594  0.12359454  0.30723541     0.03700
C907        C  0.84866673  0.09895736  0.66848496     0.38400
C908        C  0.01424202  0.20075490  0.29916406     0.38400
C909        C  0.01666743  0.09856919  0.29251159     0.36800
C910        C  0.84624223  0.19915703  0.66962708     0.36800
N911        N  0.05031230  0.07858216  0.27987054    -0.38000
N912        N  0.81043028  0.21940785  0.67396338    -0.38000
N913        N  0.04696312  0.22230856  0.29077368    -0.37500
N914        N  0.81126810  0.08462037  0.67262062    -0.37500
C915        C  0.61900242  0.40126753  0.65735678    -0.04100
C916        C  0.65690953  0.43267753  0.66135168    -0.01200
C917        C  0.70337423  0.41517874  0.65723873     0.03700
C918        C  0.71277249  0.36558732  0.65269335    -0.04100
C919        C  0.67561053  0.33401212  0.31549968    -0.01200
C920        C  0.62855749  0.35165711  0.31664652     0.03700
C921        C  0.64913006  0.48325192  0.67037157     0.38400
C922        C  0.68636251  0.28329413  0.31086423     0.38400
C923        C  0.59129968  0.31771237  0.31091836     0.36800
C924        C  0.74158756  0.44859462  0.65803066     0.36800
N925        N  0.56455069  0.28747690  0.30546787    -0.38000
N926        N  0.77152970  0.47582748  0.65883429    -0.38000
N927        N  0.69505178  0.24281900  0.30735957    -0.37500
N928        N  0.64615143  0.52385826  0.67827962    -0.37500
C929        C  0.87820415  0.36622397  0.71260095     0.31200
C930        C  0.87802361  0.36697692  0.94076374     0.31200
C931        C  0.91120478  0.40146313  0.68896267    -0.05000
C932        C  0.89817758  0.31990391  0.68549951    -0.05800
C933        C  0.83100523  0.37153536  0.68384776    -0.05600
C934        C  0.91103924  0.40183690  0.96977930    -0.05000
C935        C  0.89836146  0.32044484  0.96619953    -0.05800
C936        C  0.83088598  0.37207378  0.96553414    -0.05600
C937        C  0.95789635  0.40939319  0.95917057    -0.31000
N938        N  0.98449531  0.41884216  0.66654994     0.15500
C939        C  0.95820892  0.40907537  0.70433029    -0.31000
H940        H  0.97420308  0.40351705  0.74044553     0.17400
C941        C  0.92014087  0.27789898  0.95156219    -0.30000
N942        N  0.92939827  0.25057572  0.99108828     0.14200
C943        C  0.91918637  0.27673545  0.69851516    -0.30000
C944        C  0.78815308  0.35379906  0.94934954    -0.30300
N945        N  0.76068163  0.34782211  0.98714699     0.14700
H946        H  0.77780131  0.34368276  0.91228054     0.17300
C947        C  0.78846890  0.35260037  0.69469842    -0.30300
H948        H  0.77788262  0.34209152  0.73021522     0.17300
H949        H  0.92534128  0.26384555  0.73477424     0.17300
H950        H  0.97370938  0.40371904  0.92428147     0.17400
H951        H  0.92761836  0.26620237  0.91477998     0.17300
C952        C  0.87160622  0.37264583  0.77404332     0.31200
C953        C  0.87164633  0.37323123  0.87920702     0.31200
C954        C  0.90809546  0.40398256  0.80292331    -0.05000
C955        C  0.82642327  0.39559307  0.79864373    -0.05800
C956        C  0.87417395  0.32491393  0.79995757    -0.05600
C957        C  0.90814130  0.40419792  0.85542864    -0.05000
C958        C  0.82667141  0.39598787  0.85131935    -0.05800
C959        C  0.87398925  0.32523499  0.85160677    -0.05600
C960        C  0.91773919  0.45106850  0.87006315    -0.31000
N961        N  0.92823967  0.47711263  0.83199903     0.15500
C962        C  0.91766476  0.45080376  0.79157616    -0.31000
H963        H  0.91251446  0.46703732  0.75631993     0.17400
C964        C  0.78522731  0.41958324  0.86392545    -0.30000
N965        N  0.75849127  0.42982121  0.82290561     0.14200
C966        C  0.78431372  0.41853229  0.78355130    -0.30000
C967        C  0.85358348  0.28317610  0.86342482    -0.30300
N968        N  0.84715744  0.25529009  0.82321043     0.14700
H969        H  0.84315771  0.27305367  0.89912970     0.17300
C970        C  0.85392685  0.28263417  0.78463832    -0.30300
H971        H  0.84400077  0.27207439  0.74748205     0.17300
H972        H  0.77189378  0.42543109  0.74665655     0.17300
H973        H  0.91270965  0.46748019  0.90567229     0.17400
H974        H  0.77369199  0.42748164  0.90025651     0.17300
C975        C  0.36062327  0.06805671  0.71520408     0.31200
C976        C  0.36053165  0.07095237  0.94349136     0.31200
C977        C  0.38964669  0.02766946  0.68793426    -0.05000
C978        C  0.31299413  0.05971638  0.68589144    -0.05800
C979        C  0.38093664  0.11136789  0.69184732    -0.05600
C980        C  0.38922456  0.02895954  0.96855083    -0.05000
C981        C  0.31297850  0.06086170  0.96677760    -0.05800
C982        C  0.38050039  0.11314372  0.97373032    -0.05600
C983        C  0.40364883  0.98386731  0.95231065    -0.31000
N984        N  0.41759045  0.95787300  0.65803336     0.15500
C985        C  0.40454045  0.98196006  0.69932443    -0.31000
H986        H  0.40658255  0.96688708  0.73537686     0.17400
C987        C  0.28167674  0.02546830  0.95050481    -0.30000
N988        N  0.25834855  0.00867331  0.98710086     0.14200
C989        C  0.28156705  0.02391207  0.69481064    -0.30000
C990        C  0.41572089  0.14383957  0.96379960    -0.30300
N991        N  0.43277978  0.16497061  0.00565003     0.14700
H992        H  0.42919422  0.15028987  0.92847822     0.17300
C993        C  0.41687109  0.14039408  0.70924734    -0.30300
H994        H  0.43095647  0.14397579  0.74657822     0.17300
H995        H  0.27936879  0.00523298  0.72842426     0.17300
H996        H  0.40375005  0.97026469  0.91495711     0.17400
H997        H  0.28009026  0.00737409  0.91515836     0.17300
C998        C  0.35955678  0.07851971  0.88232535     0.31200
C999        C  0.35897138  0.07520129  0.77708657     0.31200
C1000       C  0.40020613  0.05068769  0.85778910    -0.05000
C1001       C  0.31353992  0.06249117  0.85397298    -0.05800
C1002       C  0.36255760  0.12771403  0.85586142    -0.05600
C1003       C  0.39983097  0.04865036  0.80636325    -0.05000
C1004       C  0.31328384  0.05985907  0.80162829    -0.05800
C1005       C  0.36142488  0.12616198  0.80331344    -0.05600
C1006       C  0.44447362  0.03110704  0.79509219    -0.31000
N1007       N  0.46978847  0.01862229  0.83663479     0.15500
C1008       C  0.44536848  0.03538834  0.87479345    -0.31000
H1009       H  0.46014659  0.03700617  0.91194684     0.17400
C1010       C  0.26642776  0.07189069  0.78704526    -0.30000
N1011       N  0.23828501  0.07597817  0.82496773     0.14200
C1012       C  0.26726630  0.07722845  0.86482722    -0.30000
C1013       C  0.35767399  0.17358355  0.78897579    -0.30300
N1014       N  0.36133899  0.20309878  0.82895800     0.14700
H1015       H  0.35321525  0.18642052  0.75211376     0.17300
C1016       C  0.36117230  0.17576364  0.86911974    -0.30300
H1017       H  0.36047389  0.19051677  0.90546258     0.17300
H1018       H  0.25549306  0.09253410  0.89897738     0.17300
H1019       H  0.45877706  0.02863542  0.75920814     0.17400
H1020       H  0.25438136  0.08499708  0.75223269     0.17300
C1021       C  0.56491753  0.86873739  0.71727424     0.31200
C1022       C  0.56421885  0.86935791  0.94570060     0.31200
C1023       C  0.51806898  0.88268748  0.68786443    -0.05000
C1024       C  0.60199514  0.89881476  0.69323656    -0.05800
C1025       C  0.57640742  0.81980152  0.68966800    -0.05600
C1026       C  0.51667154  0.88010527  0.96934891    -0.05000
C1027       C  0.59727190  0.90509700  0.97499865    -0.05800
C1028       C  0.57750650  0.82049678  0.97067266    -0.05600
C1029       C  0.47418043  0.90117210  0.95235180    -0.31000
N1030       N  0.45264509  0.92095085  0.65821348     0.15500
C1031       C  0.48373722  0.91633609  0.69654507    -0.31000
H1032       H  0.49528168  0.94956717  0.71221446     0.17400
C1033       C  0.64042268  0.92071605  0.96129733    -0.30000
N1034       N  0.67354110  0.91305206  0.99751753     0.14200
C1035       C  0.65088986  0.89446877  0.70047135    -0.30000
C1036       C  0.57552766  0.77315764  0.95415217    -0.30300
N1037       N  0.57142106  0.74406308  0.99259587     0.14700
H1038       H  0.57273350  0.76104311  0.91642669     0.17300
C1039       C  0.57364250  0.77196526  0.70083676    -0.30300
H1040       H  0.56995753  0.75825391  0.73652407     0.17300
H1041       H  0.66911445  0.86826781  0.72300461     0.17300
H1042       H  0.46326076  0.90726935  0.91450969     0.17400
H1043       H  0.64750523  0.93028729  0.92505554     0.17300
C1044       C  0.56438235  0.87261219  0.88519054     0.31200
C1045       C  0.56293968  0.87384898  0.78042693     0.31200
C1046       C  0.55586438  0.92304988  0.86124290    -0.05000
C1047       C  0.60965948  0.85288355  0.86000015    -0.05800
C1048       C  0.52644479  0.84388043  0.85656249    -0.05600
C1049       C  0.55221985  0.92258773  0.80838767    -0.05000
C1050       C  0.61023316  0.86094769  0.80876467    -0.05800
C1051       C  0.52692940  0.84277881  0.80480540    -0.05600
C1052       C  0.51604392  0.95551116  0.79971616    -0.31000
N1053       N  0.50880022  0.98533338  0.83792862     0.15500
C1054       C  0.53046247  0.96384861  0.87738983    -0.31000
H1055       H  0.52304085  0.97296983  0.91500729     0.17400
C1056       C  0.65279984  0.88384243  0.80609980    -0.30000
N1057       N  0.68224246  0.87481303  0.84445660     0.14200
C1058       C  0.65625151  0.85461364  0.87775365    -0.30000
C1059       C  0.50375344  0.80247689  0.78959769    -0.30300
N1060       N  0.49161472  0.77845943  0.82923334     0.14700
H1061       H  0.50114696  0.78864336  0.75283646     0.17300
C1062       C  0.50176448  0.80545820  0.86968108    -0.30300
H1063       H  0.49785741  0.79371909  0.90653215     0.17300
H1064       H  0.66839267  0.84760385  0.91448354     0.17300
H1065       H  0.48408261  0.94375849  0.78162231     0.17400
H1066       H  0.65787962  0.91497344  0.78506774     0.17300
C1067       C  0.07505083  0.55895203  0.95525134     0.31200
C1068       C  0.07424752  0.55928506  0.72708777     0.31200
C1069       C  0.03922073  0.52670700  0.97883797    -0.05000
C1070       C  0.12032923  0.53770980  0.98385192    -0.05800
C1071       C  0.07107077  0.60663458  0.98284641    -0.05600
C1072       C  0.03882312  0.52691431  0.69799992    -0.05000
C1073       C  0.11997936  0.53760400  0.70313191    -0.05800
C1074       C  0.07045302  0.60682873  0.70106892    -0.05600
C1075       C  0.03002585  0.47993991  0.70944539    -0.31000
N1076       N  0.01989228  0.45336772  0.66909684     0.15500
C1077       C  0.03042727  0.47954973  0.96432215    -0.31000
H1078       H  0.03560365  0.46322865  0.92869046     0.17400
C1079       C  0.16202438  0.51496447  0.71896050    -0.30000
N1080       N  0.18847511  0.50478576  0.01321662     0.14200
C1081       C  0.16237367  0.51549952  0.97201621    -0.30000
C1082       C  0.08871845  0.64987423  0.71650639    -0.30300
N1083       N  0.09377923  0.67790347  0.01149695     0.14700
H1084       H  0.09877721  0.66037703  0.75352322     0.17300
C1085       C  0.08991045  0.64946492  0.97136476    -0.30300
H1086       H  0.10063834  0.65995517  0.93589283     0.17300
H1087       H  0.17449533  0.50884178  0.93616438     0.17300
H1088       H  0.03520865  0.46387911  0.74478180     0.17400
H1089       H  0.17387535  0.50730692  0.75611658     0.17300
C1090       C  0.06891682  0.56559830  0.89354411     0.31200
C1091       C  0.06797446  0.56583935  0.78835323     0.31200
C1092       C  0.03676681  0.52971456  0.86474693    -0.05000
C1093       C  0.04716737  0.61170002  0.86768022    -0.05800
C1094       C  0.11618312  0.56169029  0.86851501    -0.05600
C1095       C  0.03641808  0.52980099  0.81221642    -0.05000
C1096       C  0.04671398  0.61166639  0.81501217    -0.05800
C1097       C  0.11543842  0.56218135  0.81679828    -0.05600
C1098       C  0.98965995  0.52145042  0.79684112    -0.31000
N1099       N  0.96360188  0.51157357  0.83461566     0.15500
C1100       C  0.99007019  0.52136308  0.87535191    -0.31000
H1101       H  0.97414743  0.52698395  0.91018542     0.17400
C1102       C  0.02406839  0.65391078  0.80126763    -0.30000
N1103       N  0.01423709  0.68072869  0.84162143     0.14200
C1104       C  0.02483561  0.65429721  0.88159606    -0.30000
C1105       C  0.15709962  0.58221569  0.80506692    -0.30300
N1106       N  0.18532983  0.58755247  0.84535962     0.14700
H1107       H  0.16680769  0.59293697  0.76930387     0.17300
C1108       C  0.15898256  0.58067269  0.88404521    -0.30300
H1109       H  0.17041114  0.59031679  0.92115127     0.17300
H1110       H  0.01777908  0.66664467  0.91805645     0.17300
H1111       H  0.97350175  0.52699074  0.76079721     0.17400
H1112       H  0.01646392  0.66588900  0.76468737     0.17300
O1113       O  0.03281648  0.96522959  0.95120010    -0.71700
O1114       O  0.89688767  0.92569927  0.96094817    -0.72700
O1115       O  0.94309946  0.01677163  0.95195459    -0.61300
O1116       O  0.98920501  0.87804717  0.96228300    -0.69700
O1117       O  0.00086689  0.89108823  0.70825487    -0.69300
O1118       O  0.94853206  0.02635231  0.69855669    -0.60600
O1119       O  0.90463894  0.93480424  0.70720575    -0.73100
O1120       O  0.03952715  0.98046163  0.69724910    -0.71800
Cu1121     Cu  0.96480077  0.94622762  0.95415576     1.04600
Cu1122     Cu  0.97310349  0.95819749  0.70551016     1.04300
C1123       C  0.05801522  0.97777416  0.98893423     0.94500
C1124       C  0.87866430  0.92449797  0.00236320     0.93600
C1125       C  0.94029447  0.04404182  0.98988698     0.85700
C1126       C  0.00575622  0.86441311  0.00391977     0.92000
O1127       O  0.99115608  0.91441066  0.87604510    -0.71700
O1128       O  0.92869690  0.04719146  0.86597173    -0.72700
O1129       O  0.89685179  0.95457868  0.87533531    -0.61300
O1130       O  0.02486796  0.01273206  0.86897711    -0.69700
O1131       O  0.01992245  0.00382627  0.78864707    -0.69300
O1132       O  0.89171473  0.94157817  0.79596426    -0.60600
O1133       O  0.92298562  0.03628161  0.78590827    -0.73100
O1134       O  0.98689986  0.90564834  0.79616650    -0.71800
Cu1135     Cu  0.96099425  0.98235422  0.87388888     1.04600
Cu1136     Cu  0.95559641  0.97165979  0.78895767     1.04300
C1137       C  0.99621870  0.88779903  0.83787923     0.94500
C1138       C  0.91461546  0.06156519  0.82390381     0.93600
C1139       C  0.87360771  0.93948343  0.83747185     0.85700
C1140       C  0.04252424  0.01859991  0.82769534     0.92000
O1141       O  0.50457545  0.51974175  0.95674475    -0.71700
O1142       O  0.45356275  0.38726795  0.96542075    -0.72700
O1143       O  0.41004873  0.48060817  0.96468903    -0.61300
O1144       O  0.54318308  0.42382714  0.95611542    -0.69700
O1145       O  0.55645892  0.43697794  0.70215321    -0.69300
O1146       O  0.41901869  0.47954413  0.71162961    -0.60600
O1147       O  0.47159945  0.39078497  0.71155017    -0.73100
O1148       O  0.50724800  0.52809305  0.70330217    -0.72200
Cu1149     Cu  0.47742605  0.45319339  0.95799401     1.04600
Cu1150     Cu  0.48864231  0.45937445  0.70962515     1.04300
C1151       C  0.51354371  0.54548623  0.99495167     0.94500
C1152       C  0.45827448  0.36694178  0.00660231     0.93600
C1153       C  0.39239215  0.48587212  0.00667628     0.85700
C1154       C  0.57036368  0.42095412  0.99438620     0.92000
O1155       O  0.40235636  0.51314763  0.87548341    -0.71700
O1156       O  0.53661955  0.45858782  0.86998791    -0.72700
O1157       O  0.49169842  0.55217566  0.87565175    -0.61300
O1158       O  0.44184546  0.41842225  0.87152328    -0.69700
O1159       O  0.43013010  0.42156363  0.79146295    -0.69300
O1160       O  0.48957188  0.55357774  0.79531802    -0.60600
O1161       O  0.52758009  0.45730460  0.78972779    -0.73100
O1162       O  0.39707468  0.51981610  0.79508856    -0.71800
Cu1163     Cu  0.46857450  0.48511417  0.87572155     1.04600
Cu1164     Cu  0.46128464  0.48761447  0.79037632     1.04300
C1165       C  0.37932941  0.52634388  0.83661989     0.94500
C1166       C  0.55405284  0.45097553  0.82817900     0.93600
C1167       C  0.49584463  0.57485059  0.83684927     0.85700
C1168       C  0.42602011  0.39929331  0.83124774     0.92000
C1169       C  0.23441543  0.57420625  0.84467814    -0.04100
C1170       C  0.26664935  0.60513011  0.82631774    -0.01200
C1171       C  0.31395823  0.58957967  0.82098066     0.03700
C1172       C  0.33011784  0.54490348  0.83985087    -0.04100
C1173       C  0.29750676  0.51547260  0.86058747    -0.01200
C1174       C  0.24939127  0.52750234  0.85694715     0.03700
C1175       C  0.25041759  0.65229900  0.81138126     0.38400
C1176       C  0.31292734  0.47239173  0.88531068     0.38400
C1177       C  0.21569801  0.48979677  0.85839716     0.36800
C1178       C  0.34470798  0.62179134  0.79861678     0.36800
N1179       N  0.18935707  0.45903393  0.85826476    -0.38000
N1180       N  0.36518386  0.65164932  0.78143334    -0.38000
N1181       N  0.32526516  0.43841624  0.90579585    -0.37500
N1182       N  0.23793276  0.69003320  0.79936752    -0.37500
C1183       C  0.00430272  0.83440023  0.84207120    -0.04100
C1184       C  0.96732677  0.80707021  0.85893760    -0.01200
C1185       C  0.96975550  0.75659067  0.85796341     0.03700
C1186       C  0.01052754  0.73230562  0.84248817    -0.04100
C1187       C  0.04940984  0.75897101  0.83013715    -0.01200
C1188       C  0.04586218  0.80934028  0.82775395     0.03700
C1189       C  0.92646053  0.83118793  0.87765437     0.38400
C1190       C  0.09473405  0.73462589  0.82411739     0.38400
C1191       C  0.08744060  0.83346419  0.81464612     0.36800
C1192       C  0.93037710  0.72943637  0.87271030     0.36800
N1193       N  0.12405271  0.84741449  0.80603766    -0.38000
N1194       N  0.89889022  0.70771159  0.88436391    -0.38000
N1195       N  0.13152225  0.71613015  0.82067880    -0.37500
N1196       N  0.89422255  0.85140186  0.89293389    -0.37500
C1197       C  0.33985524  0.49280784  0.01124476    -0.04100
C1198       C  0.31276675  0.45290396  0.02146853    -0.01200
C1199       C  0.26289014  0.45668039  0.02270225     0.03700
C1200       C  0.23947924  0.50070802  0.01519243    -0.04100
C1201       C  0.26619437  0.54152288  0.67561195    -0.01200
C1202       C  0.31596998  0.53765882  0.67277400     0.03700
C1203       C  0.33635084  0.40786028  0.03171373     0.38400
C1204       C  0.24195522  0.58780025  0.67381606     0.38400
C1205       C  0.34142483  0.58060661  0.66651719     0.36800
C1206       C  0.23527765  0.41558854  0.03206229     0.36800
N1207       N  0.35827641  0.61716504  0.66222617    -0.38000
N1208       N  0.21298025  0.38301918  0.03994160    -0.38000
N1209       N  0.22223833  0.62452741  0.67305294    -0.37500
N1210       N  0.35494504  0.37203394  0.04168372    -0.37500
C1211       C  0.07242105  0.72482014  0.01102363    -0.04100
C1212       C  0.02259095  0.73064647  0.00906311    -0.01200
C1213       C  0.00156370  0.77642587  0.00934139     0.03700
C1214       C  0.02945970  0.81687268  0.00880136    -0.04100
C1215       C  0.07952246  0.81081689  0.67954908    -0.01200
C1216       C  0.10069380  0.76469993  0.68042725     0.03700
C1217       C  0.99241689  0.68962752  0.00704179     0.38400
C1218       C  0.11040067  0.85063045  0.68526678     0.38400
C1219       C  0.15166728  0.75771336  0.68433705     0.36800
C1220       C  0.95135912  0.78130382  0.01500837     0.36800
N1221       N  0.19231958  0.75199387  0.68749304    -0.38000
N1222       N  0.91149900  0.78244976  0.02178211    -0.38000
N1223       N  0.13907761  0.87892701  0.69117632    -0.37500
N1224       N  0.96779058  0.65737446  0.00526249    -0.37500
C1225       C  0.49352992  0.72743350  0.83156284    -0.04100
C1226       C  0.45497712  0.70373175  0.84832783    -0.01200
C1227       C  0.45852512  0.65430220  0.85521461     0.03700
C1228       C  0.49873145  0.62752402  0.84048586    -0.04100
C1229       C  0.53947677  0.65205897  0.82992506    -0.01200
C1230       C  0.53709510  0.70207462  0.82662605     0.03700
C1231       C  0.41249104  0.73083454  0.86019979     0.38400
C1232       C  0.58538915  0.62818907  0.83019810     0.38400
C1233       C  0.58057740  0.72752429  0.82334200     0.36800
C1234       C  0.42260783  0.63195076  0.88147991     0.36800
N1235       N  0.61613898  0.74647969  0.82145796    -0.38000
N1236       N  0.39405868  0.61497942  0.90357441    -0.38000
N1237       N  0.62380387  0.61285074  0.83199190    -0.37500
N1238       N  0.37862505  0.75258306  0.86964019    -0.37500
C1239       C  0.73104440  0.88875529  0.84769569    -0.04100
C1240       C  0.74450645  0.93304105  0.86891905    -0.01200
C1241       C  0.79232209  0.94556259  0.87113358     0.03700
C1242       C  0.82516716  0.92050302  0.84211423    -0.04100
C1243       C  0.81088641  0.87806838  0.81731465    -0.01200
C1244       C  0.76469467  0.86137953  0.82179228     0.03700
C1245       C  0.70951891  0.96954054  0.88073943     0.38400
C1246       C  0.84465051  0.84976675  0.79020854     0.38400
C1247       C  0.75051771  0.81728795  0.79725663     0.36800
C1248       C  0.80736487  0.98478755  0.90292171     0.36800
N1249       N  0.73891395  0.78223854  0.77751615    -0.38000
N1250       N  0.82024126  0.01567892  0.92851128    -0.38000
N1251       N  0.87238193  0.82681455  0.76984305    -0.37500
N1252       N  0.68291194  0.00054792  0.88888008    -0.37500
C1253       C  0.55607742  0.69459324  0.98956783    -0.04100
C1254       C  0.58245775  0.65803882  0.96547114    -0.01200
C1255       C  0.56725418  0.60984772  0.96402078     0.03700
C1256       C  0.52854117  0.59671207  0.99127534    -0.04100
C1257       C  0.50241582  0.63353055  0.68127125    -0.01200
C1258       C  0.51353368  0.68196267  0.67689547     0.03700
C1259       C  0.62531453  0.67018898  0.94259864     0.38400
C1260       C  0.46315855  0.62093590  0.70920807     0.38400
C1261       C  0.47781201  0.71824509  0.68730022     0.36800
C1262       C  0.59139282  0.57385066  0.93480371     0.36800
N1263       N  0.44738146  0.74586850  0.69352315    -0.38000
N1264       N  0.61005857  0.54470564  0.91125235    -0.38000
N1265       N  0.43321748  0.60755458  0.73189712    -0.37500
N1266       N  0.65956556  0.68036799  0.92446351    -0.37500
C1267       C  0.72461769  0.91491677  0.99696243    -0.04100
C1268       C  0.74750378  0.95448218  0.68531651    -0.01200
C1269       C  0.79739145  0.95427640  0.69196332     0.03700
C1270       C  0.82599247  0.91724007  0.00514477    -0.04100
C1271       C  0.80247534  0.87635892  0.98540900    -0.01200
C1272       C  0.75249199  0.87404867  0.98551235     0.03700
C1273       C  0.71905155  0.99405680  0.70402044     0.38400
C1274       C  0.82763785  0.83453341  0.96750302     0.38400
C1275       C  0.73038626  0.82819253  0.97938777     0.36800
C1276       C  0.81890926  0.99133405  0.72186459     0.36800
N1277       N  0.71338266  0.79118921  0.97555956    -0.38000
N1278       N  0.83554335  0.02050206  0.74712621    -0.38000
N1279       N  0.84232992  0.79866658  0.95179168    -0.37500
N1280       N  0.69614172  0.02542519  0.71917562    -0.37500
C1281       C  0.37617404  0.25238227  0.82897053    -0.04100
C1282       C  0.34484948  0.28984505  0.81399815    -0.01200
C1283       C  0.35974803  0.33806301  0.81574886     0.03700
C1284       C  0.40697952  0.34919138  0.83081976    -0.04100
C1285       C  0.43667742  0.31161851  0.84853316    -0.01200
C1286       C  0.42246906  0.26375635  0.84574252     0.03700
C1287       C  0.29685382  0.27862768  0.79819827     0.38400
C1288       C  0.47962682  0.32338581  0.87556603     0.38400
C1289       C  0.45623813  0.22601737  0.85917805     0.36800
C1290       C  0.32470734  0.37589179  0.80768543     0.36800
N1291       N  0.48387860  0.19629007  0.86939325    -0.38000
N1292       N  0.29534304  0.40486224  0.80104557    -0.38000
N1293       N  0.51154824  0.33576788  0.89982052    -0.37500
N1294       N  0.25853246  0.26948344  0.78553812    -0.37500
C1295       C  0.18881702  0.06364316  0.82426533    -0.04100
C1296       C  0.17526958  0.01722861  0.80931502    -0.01200
C1297       C  0.12733411  0.00496877  0.80791471     0.03700
C1298       C  0.09218714  0.03654748  0.82554344    -0.04100
C1299       C  0.10575135  0.08312128  0.84112233    -0.01200
C1300       C  0.15381674  0.09649131  0.84017753     0.03700
C1301       C  0.21079934  0.98093862  0.79798778     0.38400
C1302       C  0.07053798  0.11893754  0.85403984     0.38400
C1303       C  0.16747422  0.14434722  0.85463301     0.36800
C1304       C  0.11253792  0.96102235  0.78476261     0.36800
N1305       N  0.17851667  0.18260705  0.86598903    -0.38000
N1306       N  0.09583645  0.92857840  0.76474600    -0.38000
N1307       N  0.04371532  0.14897645  0.86447177    -0.37500
N1308       N  0.23874707  0.95122869  0.78977853    -0.37500
C1309       C  0.43814787  0.21572484  0.01012667    -0.04100
C1310       C  0.47700351  0.23553434  0.70301292    -0.01200
C1311       C  0.48147395  0.28556700  0.70528654     0.03700
C1312       C  0.45004346  0.31513057  0.00986287    -0.04100
C1313       C  0.41067687  0.29449617  0.98486949    -0.01200
C1314       C  0.40180794  0.24649703  0.99145130     0.03700
C1315       C  0.51086108  0.20449062  0.72888447     0.38400
C1316       C  0.37761337  0.32200671  0.95416731     0.38400
C1317       C  0.35342411  0.23090305  0.98703103     0.36800
C1318       C  0.52017952  0.30596094  0.73441222     0.36800
N1319       N  0.31450408  0.21925468  0.98454220    -0.38000
N1320       N  0.55150230  0.32272128  0.75665053    -0.38000
N1321       N  0.35001841  0.34287510  0.92994174    -0.37500
N1322       N  0.53748665  0.17951722  0.74995827    -0.37500
C1323       C  0.20794364  0.00207776  0.98348961    -0.04100
C1324       C  0.18805532  0.96331217  0.95701277    -0.01200
C1325       C  0.13844072  0.95779307  0.95523788     0.03700
C1326       C  0.10923682  0.98785734  0.98443894    -0.04100
C1327       C  0.12974427  0.02761282  0.67567559    -0.01200
C1328       C  0.17743076  0.03719831  0.67025311     0.03700
C1329       C  0.21847048  0.92981170  0.93121823     0.38400
C1330       C  0.10207835  0.06092343  0.70431086     0.38400
C1331       C  0.19315993  0.08557471  0.67848705     0.36800
C1332       C  0.11807986  0.91874684  0.92683196     0.36800
N1333       N  0.20444219  0.12478707  0.68345497    -0.38000
N1334       N  0.10101427  0.88689949  0.90584867    -0.38000
N1335       N  0.08165492  0.08932422  0.72688576    -0.37500
N1336       N  0.24267612  0.90313311  0.91033307    -0.37500
C1337       C  0.86233279  0.20613587  0.82324277    -0.04100
C1338       C  0.83032398  0.17013348  0.83032581    -0.01200
C1339       C  0.84606982  0.12186210  0.82911171     0.03700
C1340       C  0.89364341  0.11006019  0.81891241    -0.04100
C1341       C  0.92387136  0.14640140  0.80785623    -0.01200
C1342       C  0.91008370  0.19399231  0.81533573     0.03700
C1343       C  0.78181994  0.18322364  0.84027223     0.38400
C1344       C  0.96744161  0.13519111  0.78439224     0.38400
C1345       C  0.94601633  0.22981350  0.81878935     0.36800
C1346       C  0.81178415  0.08532804  0.83286418     0.36800
N1347       N  0.97515038  0.25793036  0.82225660    -0.38000
N1348       N  0.78189687  0.05823775  0.83365929    -0.38000
N1349       N  0.00128917  0.12703682  0.76351171    -0.37500
N1350       N  0.74315678  0.19372942  0.84859447    -0.37500
C1351       C  0.70733609  0.43414786  0.82143242    -0.04100
C1352       C  0.68326253  0.47529299  0.80421816    -0.01200
C1353       C  0.63318557  0.47867406  0.80380696     0.03700
C1354       C  0.60656281  0.44238898  0.82358561    -0.04100
C1355       C  0.63100474  0.39961471  0.83728867    -0.01200
C1356       C  0.68075914  0.39520511  0.83451789     0.03700
C1357       C  0.71018118  0.51347286  0.78594105     0.38400
C1358       C  0.60646630  0.35746431  0.84886146     0.38400
C1359       C  0.70442436  0.34893805  0.84031314     0.36800
C1360       C  0.60867440  0.51820238  0.78010164     0.36800
N1361       N  0.72255269  0.31155726  0.84347764    -0.38000
N1362       N  0.58877102  0.54863182  0.75933365    -0.38000
N1363       N  0.59238628  0.32029003  0.85647825    -0.37500
N1364       N  0.73182985  0.54378336  0.77106345    -0.37500
C1365       C  0.93463658  0.09725549  0.98536605    -0.04100
C1366       C  0.89222880  0.12288066  0.99545204    -0.01200
C1367       C  0.89075032  0.17334911  0.99644442     0.03700
C1368       C  0.93162701  0.19904242  0.98879174    -0.04100
C1369       C  0.97304563  0.17406443  0.64279112    -0.01200
C1370       C  0.97436021  0.12356094  0.64052955     0.03700
C1371       C  0.84863840  0.09902514  0.00170886     0.38400
C1372       C  0.01418437  0.20073668  0.63232967     0.38400
C1373       C  0.01668441  0.09855278  0.62581546     0.36800
C1374       C  0.84623881  0.19923554  0.00276844     0.36800
N1375       N  0.05035086  0.07859339  0.61319193    -0.38000
N1376       N  0.81043507  0.21951646  0.00705291    -0.38000
N1377       N  0.04687458  0.22229849  0.62385241    -0.37500
N1378       N  0.81124081  0.08468818  0.00585055    -0.37500
C1379       C  0.61901697  0.40121547  0.99070585    -0.04100
C1380       C  0.65692184  0.43262540  0.99470958    -0.01200
C1381       C  0.70338614  0.41513312  0.99058274     0.03700
C1382       C  0.71278628  0.36554541  0.98598811    -0.04100
C1383       C  0.67558030  0.33399907  0.64885644    -0.01200
C1384       C  0.62853218  0.35165743  0.64999318     0.03700
C1385       C  0.64913539  0.48319879  0.00372459     0.38400
C1386       C  0.68631209  0.28327371  0.64427606     0.38400
C1387       C  0.59126591  0.31771730  0.64430645     0.36800
C1388       C  0.74159655  0.44855374  0.99140153     0.36800
N1389       N  0.56451168  0.28748183  0.63890086    -0.38000
N1390       N  0.77153735  0.47578969  0.99223761    -0.38000
N1391       N  0.69496922  0.24278912  0.64082216    -0.37500
N1392       N  0.64614503  0.52380665  0.01161723    -0.37500
loop_ 
_geom_bond_atom_site_label_1 
_geom_bond_atom_site_label_2 
_geom_bond_distance 
_geom_bond_site_symmetry_2 
_ccdc_geom_bond_type 
C1            C3   1.555       .  S
C1            C5   1.523       .  S
C1            C4   1.581       .  S
C1           C24   1.701       .  S
C2            C6   1.549       .  S
C2            C8   1.527       .  S
C2            C7   1.576       .  S
C2           C25   1.695       .  S
C3           C11   1.397       .  A
C3          C934   1.434   1_554  A
C4           C15   1.381       .  A
C4          C935   1.437   1_554  A
C5           C19   1.380       .  A
C5          C936   1.410   1_554  A
C6            C9   1.396       .  A
C6          C467   1.434       .  A
C7           C13   1.385       .  A
C7          C468   1.437       .  A
C8           C16   1.377       .  A
C8          C469   1.410       .  A
C9           H22   1.078       .  S
C9          N474   1.338       .  A
N10          C11   1.340   1_556  A
N10         C937   1.338       .  A
N10         N148   1.413   1_656  S
C11          H12   1.078       .  S
C13          H23   1.077       .  S
C13          N14   1.352       .  A
N14         C479   1.354       .  A
N14         C440   1.445       .  S
C15          H21   1.068       .  S
C15         N942   1.354   1_554  A
C16          H18   1.073       .  S
C16          N17   1.339       .  A
N17         C483   1.340       .  A
N17         C454   1.430       .  S
C19          H20   1.080       .  S
C19         N945   1.340   1_554  A
C24          C26   1.550       .  S
C24          C28   1.530       .  S
C24          C27   1.585       .  S
C25          C29   1.548       .  S
C25          C31   1.527       .  S
C25          C30   1.579       .  S
C26          C34   1.396       .  A
C26          C29   1.433       .  A
C27          C38   1.388       .  A
C27          C30   1.438       .  A
C28          C42   1.379       .  A
C28          C31   1.410       .  A
C29          C32   1.395       .  A
C30          C36   1.384       .  A
C31          C39   1.382       .  A
C32          H45   1.078       .  S
C32          N33   1.337       .  A
N33          C34   1.338       .  A
N33         N171   1.411       .  S
C34          H35   1.078       .  S
C36          H46   1.075       .  S
C36          N37   1.354       .  A
N37          C38   1.354       .  A
N37         C423   1.449       .  S
C38          H44   1.072       .  S
C39          H41   1.080       .  S
C39          N40   1.339       .  A
N40          C42   1.344       .  A
N40         C409   1.432       .  S
C42          H43   1.076       .  S
C47          C49   1.572       .  S
C47          C51   1.528       .  S
C47          C50   1.556       .  S
C47          C71   1.699       .  S
C48          C52   1.565       .  S
C48          C54   1.531       .  S
C48          C53   1.554       .  S
C48          C70   1.688       .  S
C49          C57   1.377   1_545  A
C49         C980   1.440   1_554  A
C50          C61   1.396       .  A
C50         C981   1.433   1_554  A
C51          C65   1.381       .  A
C51         C982   1.406   1_554  A
C52          C55   1.386   1_545  A
C52         C513   1.440       .  A
C53          C59   1.400       .  A
C53         C514   1.433       .  A
C54          C62   1.379       .  A
C54         C515   1.406       .  A
C55          H68   1.079       .  S
C55         N520   1.345       .  A
N56          C57   1.359   1_556  A
N56         C983   1.345       .  A
N56         N102   1.413       .  S
C57          H58   1.080       .  S
C59          H69   1.078       .  S
C59          N60   1.329       .  A
N60         C525   1.337       .  A
N60         C395   1.444       .  S
C61          H67   1.075       .  S
C61         N988   1.337   1_554  A
C62          H64   1.076       .  S
C62          N63   1.348       .  A
N63         C529   1.340       .  A
N63         C381   1.438       .  S
C65          H66   1.080       .  S
C65         N991   1.340       .  A
C70          C72   1.542       .  S
C70          C74   1.582       .  S
C70          C73   1.556       .  S
C71          C75   1.557       .  S
C71          C77   1.584       .  S
C71          C76   1.563       .  S
C72          C80   1.399       .  A
C72          C75   1.403       .  A
C73          C84   1.405       .  A
C73          C76   1.429       .  A
C74          C88   1.386       .  A
C74          C77   1.433       .  A
C75          C78   1.389       .  A
C76          C82   1.401       .  A
C77          C85   1.397       .  A
C78          H91   1.078       .  S
C78          N79   1.361       .  A
N79          C80   1.345       .  A
N79         N125   1.425   1_545  S
C80          H81   1.079       .  S
C82          H92   1.066       .  S
C82          N83   1.337       .  A
N83          C84   1.332       .  A
N83         C367   1.453       .  S
C84          H90   1.079       .  S
C85          H87   1.079       .  S
C85          N86   1.354       .  A
N86          C88   1.356       .  A
N86         C353   1.457       .  S
C88          H89   1.065       .  S
C93          C95   1.563       .  S
C93          C97   1.581       .  S
C93          C96   1.548       .  S
C93         C117   1.730       .  S
C94          C98   1.540       .  S
C94         C100   1.575       .  S
C94          C99   1.569       .  S
C94         C116   1.657       .  S
C95         C103   1.360       .  A
C95        C1026   1.414   1_554  A
C96         C107   1.392       .  A
C96        C1027   1.423   1_554  A
C97         C111   1.390       .  A
C97        C1028   1.431   1_554  A
C98         C101   1.390       .  A
C98         C559   1.414       .  A
C99         C105   1.383       .  A
C99         C560   1.423       .  A
C100        C108   1.393       .  A
C100        C561   1.431       .  A
C101        H114   1.081       .  S
C101        N566   1.355       .  A
N102        C103   1.341   1_556  A
N102       C1029   1.355       .  A
C103        H104   1.069       .  S
C105        H115   1.062       .  S
C105        N106   1.347       .  A
N106        C571   1.333       .  A
N106        C339   1.450       .  S
C107        H113   1.075       .  S
C107       N1034   1.333   1_554  A
C108        H110   1.076       .  S
C108        N109   1.359       .  A
N109        C575   1.361       .  A
N109        C325   1.466       .  S
C111        H112   1.068       .  S
C111       N1037   1.361   1_554  A
C116        C118   1.582       .  S
C116        C120   1.534       .  S
C116        C119   1.564       .  S
C117        C121   1.577       .  S
C117        C123   1.548       .  S
C117        C122   1.553       .  S
C118        C126   1.406       .  A
C118        C121   1.442       .  A
C119        C130   1.386       .  A
C119        C122   1.424       .  A
C120        C134   1.368       .  A
C120        C123   1.413       .  A
C121        C124   1.375       .  A
C122        C128   1.389       .  A
C123        C131   1.369       .  A
C124        H137   1.067       .  S
C124        N125   1.339       .  A
N125        C126   1.360       .  A
C126        H127   1.081       .  S
C128        H138   1.075       .  S
C128        N129   1.332       .  A
N129        C130   1.345       .  A
N129        C311   1.446       .  S
C130        H136   1.066       .  S
C131        H133   1.066       .  S
C131        N132   1.354       .  A
N132        C134   1.346       .  A
N132        C297   1.434       .  S
C134        H135   1.079       .  S
C139        C141   1.554       .  S
C139        C143   1.521       .  S
C139        C142   1.579       .  S
C139        C162   1.700       .  S
C140        C144   1.550       .  S
C140        C146   1.527       .  S
C140        C145   1.578       .  S
C140        C163   1.695       .  S
C141        C149   1.397       .  A
C141        C608   1.434       .  A
C142        C153   1.375       .  A
C142        C609   1.437       .  A
C143        C157   1.380       .  A
C143        C610   1.408       .  A
C144        C147   1.395       .  A
C144       C1069   1.434   1_554  A
C145        C151   1.389       .  A
C145       C1070   1.437   1_554  A
C146        C154   1.376       .  A
C146       C1071   1.408   1_554  A
C147        H160   1.078       .  S
C147        N148   1.338       .  A
N148       C1077   1.340   1_554  A
C149        H150   1.078       .  S
C149        N612   1.340       .  A
C151        H161   1.078       .  S
C151       N1080   1.353       .  A
N152        C153   1.351       .  A
N152        C615   1.353       .  A
N152        C272   1.444       .  S
C153        H159   1.064       .  S
C154        H156   1.073       .  S
C154       N1083   1.341       .  A
N155        C157   1.340       .  A
N155        C618   1.341       .  A
N155        C283   1.432       .  S
C157        H158   1.080       .  S
C162        C164   1.550       .  S
C162        C166   1.532       .  S
C162        C165   1.585       .  S
C163        C167   1.547       .  S
C163        C169   1.522       .  S
C163        C168   1.578       .  S
C164        C172   1.396   1_455  A
C164        C167   1.434       .  A
C165        C176   1.388       .  A
C165        C168   1.437       .  A
C166        C180   1.382       .  A
C166        C169   1.412       .  A
C167        C170   1.395   1_455  A
C168        C174   1.383       .  A
C169        C177   1.378       .  A
C170        H183   1.078       .  S
C170        N171   1.337       .  A
N171        C172   1.338       .  A
C172        H173   1.078       .  S
C174        H184   1.072       .  S
C174        N175   1.353       .  A
N175        C176   1.353       .  A
N175        C258   1.448       .  S
C176        H182   1.071       .  S
C177        H179   1.080       .  S
C177        N178   1.336       .  A
N178        C180   1.344       .  A
N178        C241   1.430       .  S
C180        H181   1.078       .  S
O185       Cu193   2.021   1_455  S
O185        C195   1.272       .  A
O186       Cu193   2.043       .  S
O186        C196   1.267       .  A
O187       Cu193   2.057   1_545  S
O187        C197   1.275       .  A
O188       Cu193   2.029       .  S
O188        C198   1.273   1_655  A
O189       Cu194   2.021   1_455  S
O189       C1126   1.267       .  A
O190       Cu194   2.026   1_545  S
O190       C1125   1.269   1_554  A
O191       Cu194   2.069       .  S
O191       C1124   1.279       .  A
O192       Cu194   2.025   1_455  S
O192       C1123   1.274   1_554  A
Cu193      Cu658   2.329       .  S
Cu194     Cu1121   2.329   1_554  S
C195        O656   1.274       .  A
C195        C398   1.498       .  S
C196        O655   1.279       .  A
C196        C342   1.518       .  S
C197        O654   1.269       .  A
C197        C437   1.505       .  S
C198        O653   1.267       .  A
C198        C286   1.482       .  S
O199       Cu207   2.067       .  S
O199        C209   1.277       .  A
O200       Cu207   2.024   1_545  S
O200        C210   1.270       .  A
O201       Cu207   2.001       .  S
O201        C211   1.268       .  A
O202       Cu207   2.035   1_445  S
O202        C212   1.272       .  A
O203       Cu208   2.058   1_445  S
O203        C212   1.282       .  A
O204       Cu208   2.039       .  S
O204        C211   1.270       .  A
O205       Cu208   2.012   1_545  S
O205        C210   1.269       .  A
O206       Cu208   2.040       .  S
O206        C209   1.270       .  A
Cu207      Cu208   2.328       .  S
C209        C255   1.516   1_655  S
C210        C412   1.475       .  S
C211        C314   1.499       .  S
C212        C370   1.513       .  S
O213       Cu221   2.043       .  S
O213        C223   1.272       .  A
O214       Cu221   2.008       .  S
O214        C224   1.274       .  A
O215       Cu221   2.051       .  S
O215        C225   1.276       .  A
O216       Cu221   2.017       .  S
O216        C226   1.271       .  A
O217       Cu222   2.021       .  S
O217       C1154   1.273   1_554  A
O218       Cu222   2.038       .  S
O218       C1153   1.273       .  A
O219       Cu222   2.001       .  S
O219       C1152   1.272       .  A
O220       Cu222   2.029       .  S
O220       C1151   1.274   1_554  A
Cu221      Cu686   2.329       .  S
Cu222     Cu1149   2.329   1_554  S
C223        O684   1.274       .  A
C223        C328   1.518       .  S
C224        O683   1.272       .  A
C224        C384   1.485       .  S
C225        O682   1.273       .  A
C225        C269   1.506       .  S
C226        O681   1.273       .  A
C226        C451   1.477       .  S
O227       Cu235   2.012       .  S
O227        C237   1.276       .  A
O228       Cu235   2.057       .  S
O228        C238   1.276       .  A
O229       Cu235   2.011       .  S
O229        C239   1.263       .  A
O230       Cu235   2.038       .  S
O230        C240   1.278       .  A
O231       Cu236   2.078       .  S
O231        C240   1.280       .  A
O232       Cu236   2.037       .  S
O232        C239   1.274       .  A
O233       Cu236   2.039       .  S
O233        C238   1.274       .  A
O234       Cu236   2.015       .  S
O234        C237   1.269       .  A
Cu235      Cu236   2.332       .  S
C237        C244   1.479       .  S
C238        C426   1.510       .  S
C239        C300   1.483       .  S
C240        C356   1.521       .  S
C241        C242   1.398       .  A
C241        C246   1.409       .  A
C242        C243   1.410       .  A
C242        C247   1.451       .  S
C243        C244   1.423       .  A
C243        C250   1.441       .  S
C244        C245   1.406       .  A
C245        C246   1.394       .  A
C245        C248   1.446       .  S
C246        C249   1.449       .  S
C247        N254   1.157       .  T
C248        N253   1.155       .  T
C249        N251   1.158       .  T
C250        N252   1.156       .  T
C255        C256   1.418   1_455  A
C255        C260   1.419       .  A
C256        C257   1.416       .  A
C256        C261   1.432       .  S
C257        C258   1.400   1_655  A
C257        C264   1.449       .  S
C258        C259   1.409       .  A
C259        C260   1.417       .  A
C259        C262   1.450       .  S
C260        C263   1.441       .  S
C261        N268   1.150       .  T
C262        N267   1.157       .  T
C263        N265   1.156       .  T
C264        N266   1.157       .  T
C269        C270   1.418       .  A
C269        C738   1.416       .  A
C270        C271   1.416       .  A
C270        C275   1.440       .  S
C271        C272   1.400       .  A
C271        C278   1.448       .  S
C272        C737   1.409       .  A
C273        C274   1.417       .  A
C273       C1200   1.409       .  A
C273        C276   1.451       .  S
C274       C1197   1.416       .  A
C274        C277   1.441   1_554  S
C275        N282   1.154       .  T
C276        N281   1.158       .  T
C277        N279   1.156       .  T
C278        N280   1.157       .  T
C283        C284   1.415       .  A
C283        C752   1.395       .  A
C284        C285   1.400       .  A
C284        C289   1.452   1_455  S
C285        C286   1.403       .  A
C285        C292   1.440   1_455  S
C286        C751   1.421       .  A
C287        C288   1.410       .  A
C287       C1214   1.421       .  A
C287        C290   1.440       .  S
C288       C1211   1.395       .  A
C288        C291   1.450       .  S
C289        N296   1.158       .  T
C290        N295   1.156       .  T
C291        N293   1.157       .  T
C292        N294   1.152       .  T
C297        C298   1.398       .  A
C297        C302   1.416       .  A
C298        C299   1.405       .  A
C298        C303   1.450       .  S
C299        C300   1.414       .  A
C299        C306   1.441       .  S
C300        C301   1.407       .  A
C301        C302   1.408       .  A
C301        C304   1.445       .  S
C302        C305   1.450       .  S
C303        N310   1.157       .  T
C304        N309   1.157       .  T
C305        N307   1.157       .  T
C306        N308   1.154       .  T
C311        C312   1.412       .  A
C311        C316   1.411       .  A
C312        C313   1.408       .  A
C312        C317   1.445       .  S
C313        C314   1.410       .  A
C313        C320   1.445       .  S
C314        C315   1.414       .  A
C315        C316   1.415       .  A
C315        C318   1.444       .  S
C316        C319   1.449       .  S
C317        N324   1.158   1_565  T
C318        N323   1.155       .  T
C319        N321   1.157       .  T
C320        N322   1.155   1_565  T
C325        C326   1.417       .  A
C325        C794   1.414       .  A
C326        C327   1.430       .  A
C326        C331   1.446       .  S
C327        C328   1.418       .  A
C327        C334   1.446       .  S
C328        C793   1.408       .  A
C329        C330   1.414       .  A
C329       C1256   1.408   1_554  A
C329        C332   1.437       .  S
C330       C1253   1.414   1_554  A
C330        C333   1.446       .  S
C331        N338   1.157       .  T
C332        N337   1.152       .  T
C333        N335   1.157       .  T
C334        N336   1.158       .  T
C339        C344   1.409       .  A
C339        C804   1.404       .  A
C340        C341   1.416       .  A
C340       C1267   1.404   1_554  A
C340        C345   1.449       .  S
C341       C1270   1.415       .  A
C341        C348   1.436       .  S
C342        C343   1.424       .  A
C342        C805   1.415       .  A
C343        C344   1.420       .  A
C343        C346   1.441       .  S
C344        C347   1.450       .  S
C345        N352   1.157   1_565  T
C346        N351   1.157       .  T
C347        N349   1.158       .  T
C348        N350   1.153   1_565  T
C353        C354   1.411       .  A
C353        C358   1.411       .  A
C354        C355   1.428       .  A
C354        C359   1.447       .  S
C355        C356   1.422       .  A
C355        C362   1.445       .  S
C356        C357   1.410       .  A
C357        C358   1.413       .  A
C357        C360   1.435       .  S
C358        C361   1.448       .  S
C359        N366   1.157       .  T
C360        N365   1.151       .  T
C361        N363   1.157       .  T
C362        N364   1.157       .  T
C367        C368   1.413       .  A
C367        C372   1.409       .  A
C368        C369   1.409       .  A
C368        C373   1.448   1_545  S
C369        C370   1.406       .  A
C369        C376   1.435   1_545  S
C370        C371   1.421       .  A
C371        C372   1.425       .  A
C371        C374   1.444       .  S
C372        C375   1.448       .  S
C373        N380   1.157       .  T
C374        N379   1.157       .  T
C375        N377   1.157       .  T
C376        N378   1.151       .  T
C381        C386   1.409       .  A
C381        C846   1.402       .  A
C382        C383   1.413       .  A
C382       C1309   1.402       .  A
C382        C387   1.447       .  S
C383       C1312   1.422       .  A
C383        C390   1.446       .  S
C384        C385   1.410       .  A
C384        C847   1.422       .  A
C385        C386   1.396       .  A
C385        C388   1.446       .  S
C386        C389   1.450       .  S
C387        N394   1.157       .  T
C388        N393   1.155       .  T
C389        N391   1.158       .  T
C390        N392   1.155       .  T
C395        C396   1.406   1_545  A
C395        C864   1.408       .  A
C396        C397   1.417       .  A
C396        C401   1.448       .  S
C397        C398   1.420       .  A
C397        C404   1.443       .  S
C398        C863   1.410   1_565  A
C399        C400   1.401       .  A
C399       C1326   1.410   1_544  A
C399        C402   1.440       .  S
C400       C1323   1.408   1_554  A
C400        C403   1.450       .  S
C401        N408   1.157       .  T
C402        N407   1.153       .  T
C403        N405   1.158       .  T
C404        N406   1.154       .  T
C409        C410   1.401       .  A
C409        C414   1.410       .  A
C410        C411   1.413       .  A
C410        C415   1.448       .  S
C411        C412   1.417       .  A
C411        C418   1.442       .  S
C412        C413   1.400       .  A
C413        C414   1.392       .  A
C413        C416   1.440       .  S
C414        C417   1.450       .  S
C415        N422   1.157       .  T
C416        N421   1.153   1_655  T
C417        N419   1.158       .  T
C418        N420   1.156       .  T
C423        C424   1.404       .  A
C423        C428   1.409       .  A
C424        C425   1.418       .  A
C424        C429   1.447       .  S
C425        C426   1.419       .  A
C425        C432   1.442       .  S
C426        C427   1.417       .  A
C427        C428   1.417       .  A
C427        C430   1.440       .  S
C428        C431   1.452       .  S
C429        N436   1.157       .  T
C430        N435   1.156       .  T
C431        N433   1.157       .  T
C432        N434   1.155       .  T
C437        C438   1.416       .  A
C437        C906   1.417       .  A
C438        C439   1.415       .  A
C438        C443   1.442       .  S
C439        C440   1.409       .  A
C439        C446   1.451       .  S
C440        C905   1.402       .  A
C441        C442   1.416       .  A
C441       C1368   1.402       .  A
C441        C444   1.448   1_655  S
C442       C1365   1.417       .  A
C442        C445   1.439   1_655  S
C443        N450   1.156       .  T
C444        N449   1.157       .  T
C445        N447   1.154       .  T
C446        N448   1.157       .  T
C451        C452   1.408       .  A
C451        C920   1.421       .  A
C452        C453   1.399       .  A
C452        C457   1.446       .  S
C453        C454   1.412       .  A
C453        C460   1.452       .  S
C454        C919   1.395       .  A
C455        C456   1.409       .  A
C455       C1382   1.395       .  A
C455        C458   1.450       .  S
C456       C1379   1.421       .  A
C456        C459   1.443       .  S
C457        N464   1.155       .  T
C458        N463   1.157       .  T
C459        N461   1.156       .  T
C460        N462   1.158       .  T
C465        C467   1.555       .  S
C465        C469   1.523       .  S
C465        C468   1.581       .  S
C465        C488   1.701       .  S
C466        C470   1.549       .  S
C466        C472   1.527       .  S
C466        C471   1.576       .  S
C466        C489   1.695       .  S
C467        C475   1.397       .  A
C468        C479   1.381       .  A
C469        C483   1.380       .  A
C470        C931   1.434       .  A
C470        C473   1.396       .  A
C471        C932   1.438       .  A
C471        C477   1.385       .  A
C472        C933   1.410       .  A
C472        C480   1.377       .  A
C473        H486   1.078       .  S
C473        N938   1.338       .  A
N474        C475   1.340       .  A
N474        N612   1.413   1_655  S
C475        H476   1.078       .  S
C477        H487   1.077       .  S
C477        N478   1.352       .  A
N478        C943   1.354       .  A
N478        C904   1.445       .  S
C479        H485   1.068       .  S
C480        H482   1.073       .  S
C480        N481   1.339       .  A
N481        C947   1.340       .  A
N481        C918   1.430       .  S
C483        H484   1.080       .  S
C488        C490   1.549       .  S
C488        C492   1.530       .  S
C488        C491   1.586       .  S
C489        C493   1.548       .  S
C489        C495   1.527       .  S
C489        C494   1.579       .  S
C490        C498   1.395       .  A
C490        C493   1.433       .  A
C491        C502   1.388       .  A
C491        C494   1.438       .  A
C492        C506   1.379       .  A
C492        C495   1.410       .  A
C493        C496   1.395       .  A
C494        C500   1.384       .  A
C495        C503   1.382       .  A
C496        H509   1.078       .  S
C496        N497   1.337       .  A
N497        C498   1.338       .  A
N497        N635   1.411       .  S
C498        H499   1.078       .  S
C500        H510   1.075       .  S
C500        N501   1.354       .  A
N501        C502   1.354       .  A
N501        C887   1.449       .  S
C502        H508   1.072       .  S
C503        H505   1.080       .  S
C503        N504   1.339       .  A
N504        C506   1.344       .  A
N504        C873   1.432       .  S
C506        H507   1.076       .  S
C511        C513   1.572       .  S
C511        C515   1.528       .  S
C511        C514   1.556       .  S
C511        C535   1.699       .  S
C512        C516   1.565       .  S
C512        C518   1.531       .  S
C512        C517   1.554       .  S
C512        C534   1.688       .  S
C513        C521   1.377   1_545  A
C514        C525   1.396       .  A
C515        C529   1.381       .  A
C516        C977   1.440       .  A
C516        C519   1.386   1_545  A
C517        C978   1.433       .  A
C517        C523   1.400       .  A
C518        C979   1.406       .  A
C518        C526   1.379       .  A
C519        H532   1.079       .  S
C519        N984   1.345       .  A
N520        C521   1.360       .  A
N520        N566   1.413       .  S
C521        H522   1.080       .  S
C523        H533   1.078       .  S
C523        N524   1.329       .  A
N524        C989   1.337       .  A
N524        C859   1.444       .  S
C525        H531   1.075       .  S
C526        H528   1.076       .  S
C526        N527   1.348       .  A
N527        C993   1.340       .  A
N527        C845   1.438       .  S
C529        H530   1.080       .  S
C534        C536   1.542       .  S
C534        C538   1.582       .  S
C534        C537   1.555       .  S
C535        C539   1.557       .  S
C535        C541   1.584       .  S
C535        C540   1.563       .  S
C536        C544   1.399       .  A
C536        C539   1.403       .  A
C537        C548   1.406       .  A
C537        C540   1.429       .  A
C538        C552   1.386       .  A
C538        C541   1.433       .  A
C539        C542   1.389       .  A
C540        C546   1.401       .  A
C541        C549   1.397       .  A
C542        H555   1.078       .  S
C542        N543   1.361       .  A
N543        C544   1.345       .  A
N543        N589   1.425   1_545  S
C544        H545   1.079       .  S
C546        H556   1.065       .  S
C546        N547   1.337       .  A
N547        C548   1.331       .  A
N547        C831   1.453       .  S
C548        H554   1.079       .  S
C549        H551   1.079       .  S
C549        N550   1.354       .  A
N550        C552   1.356       .  A
N550        C817   1.457       .  S
C552        H553   1.066       .  S
C557        C559   1.563       .  S
C557        C561   1.581       .  S
C557        C560   1.548       .  S
C557        C581   1.730       .  S
C558        C562   1.540       .  S
C558        C564   1.575       .  S
C558        C563   1.569       .  S
C558        C580   1.657       .  S
C559        C567   1.360       .  A
C560        C571   1.392       .  A
C561        C575   1.390       .  A
C562       C1023   1.414       .  A
C562        C565   1.390       .  A
C563       C1024   1.423       .  A
C563        C569   1.383       .  A
C564       C1025   1.431       .  A
C564        C572   1.393       .  A
C565        H578   1.081       .  S
C565       N1030   1.355       .  A
N566        C567   1.341       .  A
C567        H568   1.069       .  S
C569        H579   1.062       .  S
C569        N570   1.347       .  A
N570       C1035   1.333       .  A
N570        C803   1.450       .  S
C571        H577   1.075       .  S
C572        H574   1.076       .  S
C572        N573   1.359       .  A
N573       C1039   1.361       .  A
N573        C789   1.466       .  S
C575        H576   1.068       .  S
C580        C582   1.582       .  S
C580        C584   1.534       .  S
C580        C583   1.564       .  S
C581        C585   1.577       .  S
C581        C587   1.548       .  S
C581        C586   1.553       .  S
C582        C590   1.406       .  A
C582        C585   1.442       .  A
C583        C594   1.386       .  A
C583        C586   1.424       .  A
C584        C598   1.368       .  A
C584        C587   1.413       .  A
C585        C588   1.375       .  A
C586        C592   1.389       .  A
C587        C595   1.369       .  A
C588        H601   1.067       .  S
C588        N589   1.339       .  A
N589        C590   1.360       .  A
C590        H591   1.081       .  S
C592        H602   1.075       .  S
C592        N593   1.332       .  A
N593        C594   1.345       .  A
N593        C775   1.446       .  S
C594        H600   1.066       .  S
C595        H597   1.066       .  S
C595        N596   1.354       .  A
N596        C598   1.346       .  A
N596        C761   1.434       .  S
C598        H599   1.079       .  S
C603        C605   1.554       .  S
C603        C607   1.521       .  S
C603        C606   1.579       .  S
C603        C626   1.700       .  S
C604        C608   1.550       .  S
C604        C610   1.527       .  S
C604        C609   1.578       .  S
C604        C627   1.695       .  S
C605        C613   1.397       .  A
C605       C1072   1.434       .  A
C606        C617   1.375       .  A
C606       C1073   1.438       .  A
C607        C621   1.379       .  A
C607       C1074   1.408       .  A
C608        C611   1.395       .  A
C609        C615   1.389       .  A
C610        C618   1.376       .  A
C611        H624   1.078       .  S
C611        N612   1.338       .  A
C613        H614   1.079       .  S
C613       N1076   1.340       .  A
C615        H625   1.078       .  S
N616       C1079   1.353       .  A
N616        C617   1.351       .  A
N616        C736   1.444       .  S
C617        H623   1.065       .  S
C618        H620   1.073       .  S
N619       C1082   1.341       .  A
N619        C621   1.340       .  A
N619        C747   1.432       .  S
C621        H622   1.080       .  S
C626        C628   1.550       .  S
C626        C630   1.532       .  S
C626        C629   1.585       .  S
C627        C631   1.547       .  S
C627        C633   1.522       .  S
C627        C632   1.578       .  S
C628        C636   1.396   1_455  A
C628        C631   1.434       .  A
C629        C640   1.388       .  A
C629        C632   1.437       .  A
C630        C644   1.382       .  A
C630        C633   1.412       .  A
C631        C634   1.395   1_455  A
C632        C638   1.383       .  A
C633        C641   1.378       .  A
C634        H647   1.078       .  S
C634        N635   1.337       .  A
N635        C636   1.338       .  A
C636        H637   1.078       .  S
C638        H648   1.072       .  S
C638        N639   1.353       .  A
N639        C640   1.353       .  A
N639        C722   1.448       .  S
C640        H646   1.071       .  S
C641        H643   1.080       .  S
C641        N642   1.336       .  A
N642        C644   1.344       .  A
N642        C705   1.430       .  S
C644        H645   1.078       .  S
O649       Cu657   2.021   1_455  S
O649        C659   1.272       .  A
O650       Cu657   2.043       .  S
O650        C660   1.267       .  A
O651       Cu657   2.056   1_545  S
O651        C661   1.275       .  A
O652       Cu657   2.029       .  S
O652        C662   1.273   1_655  A
O653       Cu658   2.020   1_455  S
O654       Cu658   2.026   1_545  S
O655       Cu658   2.069       .  S
O656       Cu658   2.025   1_455  S
Cu657     Cu1122   2.329       .  S
C659       O1120   1.274       .  A
C659        C862   1.498       .  S
C660       O1119   1.279       .  A
C660        C806   1.518       .  S
C661       O1118   1.269       .  A
C661        C901   1.505       .  S
C662       O1117   1.267       .  A
C662        C750   1.482       .  S
O663       Cu671   2.067       .  S
O663        C673   1.277       .  A
O664       Cu671   2.024   1_545  S
O664        C674   1.270       .  A
O665       Cu671   2.001       .  S
O665        C675   1.268       .  A
O666       Cu671   2.035   1_445  S
O666        C676   1.272       .  A
O667       Cu672   2.058   1_445  S
O667        C676   1.282       .  A
O668       Cu672   2.039       .  S
O668        C675   1.270       .  A
O669       Cu672   2.012   1_545  S
O669        C674   1.269       .  A
O670       Cu672   2.040       .  S
O670        C673   1.270       .  A
Cu671      Cu672   2.328       .  S
C673        C719   1.516   1_655  S
C674        C876   1.475       .  S
C675        C778   1.499       .  S
C676        C834   1.513       .  S
O677       Cu685   2.043       .  S
O677        C687   1.272       .  A
O678       Cu685   2.008       .  S
O678        C688   1.274       .  A
O679       Cu685   2.051       .  S
O679        C689   1.276       .  A
O680       Cu685   2.016       .  S
O680        C690   1.270       .  A
O681       Cu686   2.021       .  S
O682       Cu686   2.038       .  S
O683       Cu686   2.001       .  S
O684       Cu686   2.029       .  S
Cu685     Cu1150   2.329       .  S
C687       O1148   1.274       .  A
C687        C792   1.518       .  S
C688       O1147   1.272       .  A
C688        C848   1.485       .  S
C689       O1146   1.273       .  A
C689        C733   1.506       .  S
C690       O1145   1.273       .  A
C690        C915   1.477       .  S
O691       Cu699   2.012       .  S
O691        C701   1.276       .  A
O692       Cu699   2.057       .  S
O692        C702   1.276       .  A
O693       Cu699   2.011       .  S
O693        C703   1.263       .  A
O694       Cu699   2.038       .  S
O694        C704   1.278       .  A
O695       Cu700   2.078       .  S
O695        C704   1.280       .  A
O696       Cu700   2.037       .  S
O696        C703   1.274       .  A
O697       Cu700   2.039       .  S
O697        C702   1.274       .  A
O698       Cu700   2.015       .  S
O698        C701   1.269       .  A
Cu699      Cu700   2.332       .  S
C701        C708   1.479       .  S
C702        C890   1.510       .  S
C703        C764   1.483       .  S
C704        C820   1.520       .  S
C705        C706   1.398       .  A
C705        C710   1.409       .  A
C706        C707   1.410       .  A
C706        C711   1.451       .  S
C707        C708   1.423       .  A
C707        C714   1.441       .  S
C708        C709   1.407       .  A
C709        C710   1.394       .  A
C709        C712   1.446       .  S
C710        C713   1.449       .  S
C711        N718   1.157       .  T
C712        N717   1.155       .  T
C713        N715   1.158       .  T
C714        N716   1.156       .  T
C719        C720   1.418   1_455  A
C719        C724   1.419       .  A
C720        C721   1.416       .  A
C720        C725   1.432       .  S
C721        C722   1.400   1_655  A
C721        C728   1.449       .  S
C722        C723   1.409       .  A
C723        C724   1.417       .  A
C723        C726   1.450       .  S
C724        C727   1.441       .  S
C725        N732   1.150       .  T
C726        N731   1.157       .  T
C727        N729   1.156       .  T
C728        N730   1.157       .  T
C733        C734   1.418       .  A
C733       C1202   1.416       .  A
C734        C735   1.416       .  A
C734        C739   1.440       .  S
C735        C736   1.400       .  A
C735        C742   1.448       .  S
C736       C1201   1.409       .  A
C737        C738   1.417       .  A
C737        C740   1.451       .  S
C738        C741   1.441       .  S
C739        N746   1.154       .  T
C740        N745   1.158       .  T
C741        N743   1.156       .  T
C742        N744   1.157       .  T
C747        C748   1.415       .  A
C747       C1216   1.395       .  A
C748        C749   1.400       .  A
C748        C753   1.453   1_455  S
C749        C750   1.403       .  A
C749        C756   1.440   1_455  S
C750       C1215   1.421       .  A
C751        C752   1.410       .  A
C751        C754   1.440       .  S
C752        C755   1.450       .  S
C753        N760   1.158       .  T
C754        N759   1.156       .  T
C755        N757   1.157       .  T
C756        N758   1.152       .  T
C761        C762   1.398       .  A
C761        C766   1.416       .  A
C762        C763   1.405       .  A
C762        C767   1.449       .  S
C763        C764   1.414       .  A
C763        C770   1.441       .  S
C764        C765   1.407       .  A
C765        C766   1.408       .  A
C765        C768   1.445       .  S
C766        C769   1.450       .  S
C767        N774   1.157       .  T
C768        N773   1.157       .  T
C769        N771   1.157       .  T
C770        N772   1.154       .  T
C775        C776   1.412       .  A
C775        C780   1.411       .  A
C776        C777   1.408       .  A
C776        C781   1.445       .  S
C777        C778   1.410       .  A
C777        C784   1.445       .  S
C778        C779   1.414       .  A
C779        C780   1.415       .  A
C779        C782   1.444       .  S
C780        C783   1.449       .  S
C781        N788   1.158   1_565  T
C782        N787   1.155       .  T
C783        N785   1.157       .  T
C784        N786   1.155   1_565  T
C789        C790   1.417       .  A
C789       C1258   1.414       .  A
C790        C791   1.430       .  A
C790        C795   1.446       .  S
C791        C792   1.418       .  A
C791        C798   1.446       .  S
C792       C1257   1.408       .  A
C793        C794   1.414       .  A
C793        C796   1.437       .  S
C794        C797   1.446       .  S
C795        N802   1.157       .  T
C796        N801   1.152       .  T
C797        N799   1.157       .  T
C798        N800   1.158       .  T
C803       C1268   1.404       .  A
C803        C808   1.409       .  A
C804        C805   1.416       .  A
C804        C809   1.449       .  S
C805        C812   1.436       .  S
C806       C1269   1.415       .  A
C806        C807   1.424       .  A
C807        C808   1.420       .  A
C807        C810   1.441       .  S
C808        C811   1.450       .  S
C809        N816   1.157   1_565  T
C810        N815   1.157       .  T
C811        N813   1.158       .  T
C812        N814   1.153   1_565  T
C817        C818   1.411       .  A
C817        C822   1.411       .  A
C818        C819   1.428       .  A
C818        C823   1.447       .  S
C819        C820   1.422       .  A
C819        C826   1.445       .  S
C820        C821   1.410       .  A
C821        C822   1.413       .  A
C821        C824   1.435       .  S
C822        C825   1.448       .  S
C823        N830   1.157       .  T
C824        N829   1.151       .  T
C825        N827   1.157       .  T
C826        N828   1.157       .  T
C831        C832   1.413       .  A
C831        C836   1.409       .  A
C832        C833   1.409       .  A
C832        C837   1.448   1_545  S
C833        C834   1.406       .  A
C833        C840   1.435   1_545  S
C834        C835   1.421       .  A
C835        C836   1.425       .  A
C835        C838   1.443       .  S
C836        C839   1.448       .  S
C837        N844   1.157       .  T
C838        N843   1.157       .  T
C839        N841   1.157       .  T
C840        N842   1.151       .  T
C845       C1310   1.402       .  A
C845        C850   1.409       .  A
C846        C847   1.413       .  A
C846        C851   1.447       .  S
C847        C854   1.446       .  S
C848       C1311   1.422       .  A
C848        C849   1.410       .  A
C849        C850   1.396       .  A
C849        C852   1.446       .  S
C850        C853   1.450       .  S
C851        N858   1.157       .  T
C852        N857   1.155       .  T
C853        N855   1.158       .  T
C854        N856   1.155       .  T
C859        C860   1.406   1_545  A
C859       C1328   1.408       .  A
C860        C861   1.417       .  A
C860        C865   1.448       .  S
C861        C862   1.420       .  A
C861        C868   1.443       .  S
C862       C1327   1.410   1_565  A
C863        C864   1.401       .  A
C863        C866   1.440       .  S
C864        C867   1.450       .  S
C865        N872   1.157       .  T
C866        N871   1.153       .  T
C867        N869   1.158       .  T
C868        N870   1.154       .  T
C873        C874   1.401       .  A
C873        C878   1.410       .  A
C874        C875   1.413       .  A
C874        C879   1.448       .  S
C875        C876   1.417       .  A
C875        C882   1.442       .  S
C876        C877   1.400       .  A
C877        C878   1.392       .  A
C877        C880   1.440       .  S
C878        C881   1.450       .  S
C879        N886   1.157       .  T
C880        N885   1.153   1_655  T
C881        N883   1.158       .  T
C882        N884   1.156       .  T
C887        C888   1.404       .  A
C887        C892   1.409       .  A
C888        C889   1.418       .  A
C888        C893   1.447       .  S
C889        C890   1.419       .  A
C889        C896   1.442       .  S
C890        C891   1.417       .  A
C891        C892   1.417       .  A
C891        C894   1.440       .  S
C892        C895   1.452       .  S
C893        N900   1.157       .  T
C894        N899   1.156       .  T
C895        N897   1.157       .  T
C896        N898   1.155       .  T
C901        C902   1.416       .  A
C901       C1370   1.417       .  A
C902        C903   1.415       .  A
C902        C907   1.442       .  S
C903        C904   1.409       .  A
C903        C910   1.451       .  S
C904       C1369   1.402       .  A
C905        C906   1.416       .  A
C905        C908   1.448   1_655  S
C906        C909   1.439   1_655  S
C907        N914   1.156       .  T
C908        N913   1.157       .  T
C909        N911   1.154       .  T
C910        N912   1.157       .  T
C915        C916   1.408       .  A
C915       C1384   1.421       .  A
C916        C917   1.399       .  A
C916        C921   1.446       .  S
C917        C918   1.412       .  A
C917        C924   1.452       .  S
C918       C1383   1.395       .  A
C919        C920   1.409       .  A
C919        C922   1.450       .  S
C920        C923   1.443       .  S
C921        N928   1.155       .  T
C922        N927   1.157       .  T
C923        N925   1.156       .  T
C924        N926   1.158       .  T
C929        C931   1.555       .  S
C929        C933   1.523       .  S
C929        C932   1.581       .  S
C929        C952   1.701       .  S
C930        C934   1.549       .  S
C930        C936   1.527       .  S
C930        C935   1.576       .  S
C930        C953   1.695       .  S
C931        C939   1.397       .  A
C932        C943   1.381       .  A
C933        C947   1.380       .  A
C934        C937   1.396       .  A
C935        C941   1.385       .  A
C936        C944   1.377       .  A
C937        H950   1.078       .  S
N938        C939   1.340       .  A
N938       N1076   1.413   1_655  S
C939        H940   1.078       .  S
C941        H951   1.077       .  S
C941        N942   1.352       .  A
N942       C1368   1.445       .  S
C943        H949   1.068       .  S
C944        H946   1.073       .  S
C944        N945   1.339       .  A
N945       C1382   1.430       .  S
C947        H948   1.080       .  S
C952        C954   1.550       .  S
C952        C956   1.530       .  S
C952        C955   1.586       .  S
C953        C957   1.548       .  S
C953        C959   1.526       .  S
C953        C958   1.579       .  S
C954        C962   1.396       .  A
C954        C957   1.433       .  A
C955        C966   1.388       .  A
C955        C958   1.438       .  A
C956        C970   1.379       .  A
C956        C959   1.410       .  A
C957        C960   1.395       .  A
C958        C964   1.384       .  A
C959        C967   1.382       .  A
C960        H973   1.078       .  S
C960        N961   1.337       .  A
N961        C962   1.338       .  A
N961       N1099   1.411       .  S
C962        H963   1.078       .  S
C964        H974   1.075       .  S
C964        N965   1.354       .  A
N965        C966   1.354       .  A
N965       C1351   1.449       .  S
C966        H972   1.072       .  S
C967        H969   1.080       .  S
C967        N968   1.339       .  A
N968        C970   1.344       .  A
N968       C1337   1.432       .  S
C970        H971   1.076       .  S
C975        C977   1.572       .  S
C975        C979   1.528       .  S
C975        C978   1.556       .  S
C975        C999   1.699       .  S
C976        C980   1.565       .  S
C976        C982   1.531       .  S
C976        C981   1.554       .  S
C976        C998   1.688       .  S
C977        C985   1.377   1_545  A
C978        C989   1.396       .  A
C979        C993   1.381       .  A
C980        C983   1.386   1_545  A
C981        C987   1.400       .  A
C982        C990   1.379       .  A
C983        H996   1.079       .  S
N984        C985   1.359       .  A
N984       N1030   1.413       .  S
C985        H986   1.080       .  S
C987        H997   1.078       .  S
C987        N988   1.329       .  A
N988       C1323   1.444       .  S
C989        H995   1.075       .  S
C990        H992   1.076       .  S
C990        N991   1.348   1_556  A
N991       C1309   1.438       .  S
C993        H994   1.080       .  S
C998       C1000   1.542       .  S
C998       C1002   1.582       .  S
C998       C1001   1.555       .  S
C999       C1003   1.557       .  S
C999       C1005   1.584       .  S
C999       C1004   1.563       .  S
C1000      C1008   1.399       .  A
C1000      C1003   1.403       .  A
C1001      C1012   1.405       .  A
C1001      C1004   1.429       .  A
C1002      C1016   1.386       .  A
C1002      C1005   1.433       .  A
C1003      C1006   1.389       .  A
C1004      C1010   1.401       .  A
C1005      C1013   1.397       .  A
C1006      H1019   1.078       .  S
C1006      N1007   1.361       .  A
N1007      C1008   1.345       .  A
N1007      N1053   1.425   1_545  S
C1008      H1009   1.079       .  S
C1010      H1020   1.066       .  S
C1010      N1011   1.337       .  A
N1011      C1012   1.331       .  A
N1011      C1295   1.453       .  S
C1012      H1018   1.079       .  S
C1013      H1015   1.079       .  S
C1013      N1014   1.354       .  A
N1014      C1016   1.356       .  A
N1014      C1281   1.457       .  S
C1016      H1017   1.066       .  S
C1021      C1023   1.563       .  S
C1021      C1025   1.581       .  S
C1021      C1024   1.548       .  S
C1021      C1045   1.730       .  S
C1022      C1026   1.540       .  S
C1022      C1028   1.575       .  S
C1022      C1027   1.569       .  S
C1022      C1044   1.657       .  S
C1023      C1031   1.359       .  A
C1024      C1035   1.392       .  A
C1025      C1039   1.390       .  A
C1026      C1029   1.390       .  A
C1027      C1033   1.383       .  A
C1028      C1036   1.393       .  A
C1029      H1042   1.081       .  S
N1030      C1031   1.341       .  A
C1031      H1032   1.069       .  S
C1033      H1043   1.062       .  S
C1033      N1034   1.347       .  A
N1034      C1267   1.450       .  S
C1035      H1041   1.075       .  S
C1036      H1038   1.076       .  S
C1036      N1037   1.359       .  A
N1037      C1253   1.466       .  S
C1039      H1040   1.068       .  S
C1044      C1046   1.582       .  S
C1044      C1048   1.534       .  S
C1044      C1047   1.564       .  S
C1045      C1049   1.577       .  S
C1045      C1051   1.548       .  S
C1045      C1050   1.552       .  S
C1046      C1054   1.406       .  A
C1046      C1049   1.442       .  A
C1047      C1058   1.386       .  A
C1047      C1050   1.424       .  A
C1048      C1062   1.368       .  A
C1048      C1051   1.413       .  A
C1049      C1052   1.375       .  A
C1050      C1056   1.389       .  A
C1051      C1059   1.369       .  A
C1052      H1065   1.067       .  S
C1052      N1053   1.339       .  A
N1053      C1054   1.360       .  A
C1054      H1055   1.081       .  S
C1056      H1066   1.075       .  S
C1056      N1057   1.332       .  A
N1057      C1058   1.345       .  A
N1057      C1239   1.446       .  S
C1058      H1064   1.066       .  S
C1059      H1061   1.066       .  S
C1059      N1060   1.354       .  A
N1060      C1062   1.346       .  A
N1060      C1225   1.434       .  S
C1062      H1063   1.079       .  S
C1067      C1069   1.554       .  S
C1067      C1071   1.521       .  S
C1067      C1070   1.579       .  S
C1067      C1090   1.700       .  S
C1068      C1072   1.550       .  S
C1068      C1074   1.527       .  S
C1068      C1073   1.578       .  S
C1068      C1091   1.695       .  S
C1069      C1077   1.397       .  A
C1070      C1081   1.376       .  A
C1071      C1085   1.380       .  A
C1072      C1075   1.395       .  A
C1073      C1079   1.389       .  A
C1074      C1082   1.376       .  A
C1075      H1088   1.078       .  S
C1075      N1076   1.338       .  A
C1077      H1078   1.078       .  S
C1079      H1089   1.078       .  S
N1080      C1081   1.352   1_554  A
N1080      C1200   1.444       .  S
C1081      H1087   1.063       .  S
C1082      H1084   1.073       .  S
N1083      C1085   1.340   1_554  A
N1083      C1211   1.432       .  S
C1085      H1086   1.080       .  S
C1090      C1092   1.551       .  S
C1090      C1094   1.532       .  S
C1090      C1093   1.585       .  S
C1091      C1095   1.547       .  S
C1091      C1097   1.522       .  S
C1091      C1096   1.578       .  S
C1092      C1100   1.396   1_455  A
C1092      C1095   1.434       .  A
C1093      C1104   1.388       .  A
C1093      C1096   1.437       .  A
C1094      C1108   1.382       .  A
C1094      C1097   1.412       .  A
C1095      C1098   1.395   1_455  A
C1096      C1102   1.383       .  A
C1097      C1105   1.378       .  A
C1098      H1111   1.078       .  S
C1098      N1099   1.337       .  A
N1099      C1100   1.338       .  A
C1100      H1101   1.078       .  S
C1102      H1112   1.072       .  S
C1102      N1103   1.353       .  A
N1103      C1104   1.353       .  A
N1103      C1186   1.448       .  S
C1104      H1110   1.071       .  S
C1105      H1107   1.080       .  S
C1105      N1106   1.336       .  A
N1106      C1108   1.344       .  A
N1106      C1169   1.430       .  S
C1108      H1109   1.078       .  S
O1113     Cu1121   2.020   1_455  S
O1113      C1123   1.272       .  A
O1114     Cu1121   2.043       .  S
O1114      C1124   1.267   1_556  A
O1115     Cu1121   2.057   1_545  S
O1115      C1125   1.275       .  A
O1116     Cu1121   2.029       .  S
O1116      C1126   1.273   1_656  A
O1117     Cu1122   2.021   1_455  S
O1118     Cu1122   2.026   1_545  S
O1119     Cu1122   2.069       .  S
O1120     Cu1122   2.025   1_455  S
C1123      C1326   1.498       .  S
C1124      C1270   1.518       .  S
C1125      C1365   1.505       .  S
C1126      C1214   1.482       .  S
O1127     Cu1135   2.067       .  S
O1127      C1137   1.277       .  A
O1128     Cu1135   2.024   1_545  S
O1128      C1138   1.270       .  A
O1129     Cu1135   2.001       .  S
O1129      C1139   1.268       .  A
O1130     Cu1135   2.035   1_445  S
O1130      C1140   1.272       .  A
O1131     Cu1136   2.058   1_445  S
O1131      C1140   1.282       .  A
O1132     Cu1136   2.039       .  S
O1132      C1139   1.270       .  A
O1133     Cu1136   2.012   1_545  S
O1133      C1138   1.269       .  A
O1134     Cu1136   2.040       .  S
O1134      C1137   1.270       .  A
Cu1135    Cu1136   2.328       .  S
C1137      C1183   1.516   1_655  S
C1138      C1340   1.475       .  S
C1139      C1242   1.499       .  S
C1140      C1298   1.513       .  S
O1141     Cu1149   2.043       .  S
O1141      C1151   1.272       .  A
O1142     Cu1149   2.007       .  S
O1142      C1152   1.274   1_556  A
O1143     Cu1149   2.051       .  S
O1143      C1153   1.276   1_556  A
O1144     Cu1149   2.016       .  S
O1144      C1154   1.270       .  A
O1145     Cu1150   2.021       .  S
O1146     Cu1150   2.038       .  S
O1147     Cu1150   2.001       .  S
O1148     Cu1150   2.028       .  S
C1151      C1256   1.518       .  S
C1152      C1312   1.485       .  S
C1153      C1197   1.506       .  S
C1154      C1379   1.477       .  S
O1155     Cu1163   2.012       .  S
O1155      C1165   1.276       .  A
O1156     Cu1163   2.057       .  S
O1156      C1166   1.276       .  A
O1157     Cu1163   2.011       .  S
O1157      C1167   1.263       .  A
O1158     Cu1163   2.038       .  S
O1158      C1168   1.278       .  A
O1159     Cu1164   2.078       .  S
O1159      C1168   1.280       .  A
O1160     Cu1164   2.038       .  S
O1160      C1167   1.274       .  A
O1161     Cu1164   2.039       .  S
O1161      C1166   1.274       .  A
O1162     Cu1164   2.015       .  S
O1162      C1165   1.269       .  A
Cu1163    Cu1164   2.332       .  S
C1165      C1172   1.479       .  S
C1166      C1354   1.510       .  S
C1167      C1228   1.483       .  S
C1168      C1284   1.520       .  S
C1169      C1170   1.398       .  A
C1169      C1174   1.409       .  A
C1170      C1171   1.410       .  A
C1170      C1175   1.451       .  S
C1171      C1172   1.423       .  A
C1171      C1178   1.441       .  S
C1172      C1173   1.407       .  A
C1173      C1174   1.394       .  A
C1173      C1176   1.446       .  S
C1174      C1177   1.449       .  S
C1175      N1182   1.157       .  T
C1176      N1181   1.155       .  T
C1177      N1179   1.158       .  T
C1178      N1180   1.156       .  T
C1183      C1184   1.418   1_455  A
C1183      C1188   1.419       .  A
C1184      C1185   1.416       .  A
C1184      C1189   1.432       .  S
C1185      C1186   1.400   1_655  A
C1185      C1192   1.449       .  S
C1186      C1187   1.409       .  A
C1187      C1188   1.417       .  A
C1187      C1190   1.450       .  S
C1188      C1191   1.441       .  S
C1189      N1196   1.150       .  T
C1190      N1195   1.157       .  T
C1191      N1193   1.156       .  T
C1192      N1194   1.157       .  T
C1197      C1198   1.418       .  A
C1198      C1199   1.416       .  A
C1198      C1203   1.440       .  S
C1199      C1200   1.400       .  A
C1199      C1206   1.448       .  S
C1201      C1202   1.417       .  A
C1201      C1204   1.451       .  S
C1202      C1205   1.441       .  S
C1203      N1210   1.154       .  T
C1204      N1209   1.158       .  T
C1205      N1207   1.156       .  T
C1206      N1208   1.157       .  T
C1211      C1212   1.415       .  A
C1212      C1213   1.400       .  A
C1212      C1217   1.453   1_455  S
C1213      C1214   1.403       .  A
C1213      C1220   1.440   1_455  S
C1215      C1216   1.410       .  A
C1215      C1218   1.440       .  S
C1216      C1219   1.450       .  S
C1217      N1224   1.158       .  T
C1218      N1223   1.156       .  T
C1219      N1221   1.157       .  T
C1220      N1222   1.152       .  T
C1225      C1226   1.398       .  A
C1225      C1230   1.416       .  A
C1226      C1227   1.405       .  A
C1226      C1231   1.449       .  S
C1227      C1228   1.414       .  A
C1227      C1234   1.441       .  S
C1228      C1229   1.407       .  A
C1229      C1230   1.408       .  A
C1229      C1232   1.445       .  S
C1230      C1233   1.450       .  S
C1231      N1238   1.157       .  T
C1232      N1237   1.157       .  T
C1233      N1235   1.157       .  T
C1234      N1236   1.154       .  T
C1239      C1240   1.412       .  A
C1239      C1244   1.411       .  A
C1240      C1241   1.408       .  A
C1240      C1245   1.445       .  S
C1241      C1242   1.410       .  A
C1241      C1248   1.445       .  S
C1242      C1243   1.414       .  A
C1243      C1244   1.415       .  A
C1243      C1246   1.444       .  S
C1244      C1247   1.449       .  S
C1245      N1252   1.158   1_565  T
C1246      N1251   1.155       .  T
C1247      N1249   1.157       .  T
C1248      N1250   1.155   1_565  T
C1253      C1254   1.417       .  A
C1254      C1255   1.430       .  A
C1254      C1259   1.446       .  S
C1255      C1256   1.418       .  A
C1255      C1262   1.446       .  S
C1257      C1258   1.414       .  A
C1257      C1260   1.437       .  S
C1258      C1261   1.446       .  S
C1259      N1266   1.157       .  T
C1260      N1265   1.152       .  T
C1261      N1263   1.157       .  T
C1262      N1264   1.158       .  T
C1267      C1272   1.409       .  A
C1268      C1269   1.416       .  A
C1268      C1273   1.449       .  S
C1269      C1276   1.436       .  S
C1270      C1271   1.424   1_554  A
C1271      C1272   1.419       .  A
C1271      C1274   1.441       .  S
C1272      C1275   1.450       .  S
C1273      N1280   1.157   1_565  T
C1274      N1279   1.157       .  T
C1275      N1277   1.158       .  T
C1276      N1278   1.153   1_565  T
C1281      C1282   1.411       .  A
C1281      C1286   1.411       .  A
C1282      C1283   1.428       .  A
C1282      C1287   1.447       .  S
C1283      C1284   1.422       .  A
C1283      C1290   1.445       .  S
C1284      C1285   1.410       .  A
C1285      C1286   1.413       .  A
C1285      C1288   1.435       .  S
C1286      C1289   1.448       .  S
C1287      N1294   1.157       .  T
C1288      N1293   1.151       .  T
C1289      N1291   1.157       .  T
C1290      N1292   1.157       .  T
C1295      C1296   1.413       .  A
C1295      C1300   1.409       .  A
C1296      C1297   1.409       .  A
C1296      C1301   1.448   1_545  S
C1297      C1298   1.406       .  A
C1297      C1304   1.435   1_545  S
C1298      C1299   1.421       .  A
C1299      C1300   1.425       .  A
C1299      C1302   1.444       .  S
C1300      C1303   1.448       .  S
C1301      N1308   1.157       .  T
C1302      N1307   1.157       .  T
C1303      N1305   1.157       .  T
C1304      N1306   1.151       .  T
C1309      C1314   1.409   1_554  A
C1310      C1311   1.413       .  A
C1310      C1315   1.447       .  S
C1311      C1318   1.446       .  S
C1312      C1313   1.410   1_554  A
C1313      C1314   1.396       .  A
C1313      C1316   1.446       .  S
C1314      C1317   1.450       .  S
C1315      N1322   1.157       .  T
C1316      N1321   1.155       .  T
C1317      N1319   1.158       .  T
C1318      N1320   1.155       .  T
C1323      C1324   1.406   1_545  A
C1324      C1325   1.417       .  A
C1324      C1329   1.448       .  S
C1325      C1326   1.420       .  A
C1325      C1332   1.443       .  S
C1327      C1328   1.401       .  A
C1327      C1330   1.440       .  S
C1328      C1331   1.450       .  S
C1329      N1336   1.157       .  T
C1330      N1335   1.153       .  T
C1331      N1333   1.158       .  T
C1332      N1334   1.154       .  T
C1337      C1338   1.401       .  A
C1337      C1342   1.410       .  A
C1338      C1339   1.413       .  A
C1338      C1343   1.448       .  S
C1339      C1340   1.417       .  A
C1339      C1346   1.442       .  S
C1340      C1341   1.400       .  A
C1341      C1342   1.392       .  A
C1341      C1344   1.440       .  S
C1342      C1345   1.450       .  S
C1343      N1350   1.157       .  T
C1344      N1349   1.153   1_655  T
C1345      N1347   1.158       .  T
C1346      N1348   1.156       .  T
C1351      C1352   1.404       .  A
C1351      C1356   1.409       .  A
C1352      C1353   1.418       .  A
C1352      C1357   1.447       .  S
C1353      C1354   1.419       .  A
C1353      C1360   1.442       .  S
C1354      C1355   1.418       .  A
C1355      C1356   1.417       .  A
C1355      C1358   1.440       .  S
C1356      C1359   1.452       .  S
C1357      N1364   1.157       .  T
C1358      N1363   1.156       .  T
C1359      N1361   1.157       .  T
C1360      N1362   1.155       .  T
C1365      C1366   1.416       .  A
C1366      C1367   1.415       .  A
C1366      C1371   1.442   1_556  S
C1367      C1368   1.409       .  A
C1367      C1374   1.451   1_556  S
C1369      C1370   1.416       .  A
C1369      C1372   1.448   1_655  S
C1370      C1373   1.439   1_655  S
C1371      N1378   1.156       .  T
C1372      N1377   1.157       .  T
C1373      N1375   1.154       .  T
C1374      N1376   1.157       .  T
C1379      C1380   1.408       .  A
C1380      C1381   1.399       .  A
C1380      C1385   1.446   1_556  S
C1381      C1382   1.412       .  A
C1381      C1388   1.452       .  S
C1383      C1384   1.409       .  A
C1383      C1386   1.450       .  S
C1384      C1387   1.443       .  S
C1385      N1392   1.155       .  T
C1386      N1391   1.157       .  T
C1387      N1389   1.156       .  T
C1388      N1390   1.158       .  T
