geometry optimzed in LAMMPS
_audit_creation_date              2020-11-30 
_audit_creation_method            'lammps2cif' 
_symmetry_space_group_name_H-M    'P1' 
_symmetry_Int_Tables_number       1 
_symmetry_cell_setting            triclinic 
loop_ 
_symmetry_equiv_pos_as_xyz 
  x,y,z 
_cell_length_a                    30.66887601 
_cell_length_b                    61.43766537115258 
_cell_length_c                    54.64476200967634 
_cell_angle_alpha                 89.91187811029766 
_cell_angle_beta                  90.31405592857931 
_cell_angle_gamma                 89.46544537531467 
loop_ 
_atom_site_label 
_atom_site_type_symbol 
_atom_site_fract_x 
_atom_site_fract_y 
_atom_site_fract_z 
_atom_site_charge 
N1          N  0.56984875  0.71066512  0.73316928    -0.23900
N2          N  0.54106831  0.69622649  0.72559922    -0.31800
C3          C  0.51423911  0.69141923  0.74426131     0.04400
C4          C  0.52688619  0.70342713  0.76443285     0.10400
C5          C  0.56217821  0.71542591  0.75681276    -0.02700
H6          H  0.48647304  0.68074237  0.74291419     0.11100
H7          H  0.57963571  0.72751209  0.76728024     0.12300
Cu8        Cu  0.53734885  0.68582953  0.68937210     0.44200
Cu9        Cu  0.61399408  0.72546337  0.70990262     0.42000
Cu10       Cu  0.60313910  0.71494640  0.64442823     0.43900
N11         N  0.53745779  0.67901007  0.65200802    -0.31300
N12         N  0.56070545  0.68954575  0.63549482    -0.25600
C13         C  0.55241762  0.68097308  0.61319928    -0.01700
C14         C  0.52281717  0.66427539  0.61598845     0.10500
C15         C  0.51400385  0.66355065  0.64071780     0.04300
H16         H  0.56679180  0.68651135  0.59628612     0.12000
H17         H  0.49188211  0.65263771  0.64987166     0.11100
N18         N  0.64452494  0.73853692  0.65933248    -0.32800
N19         N  0.64880139  0.74184572  0.68316651    -0.25000
C20         C  0.67726226  0.75804828  0.68696699    -0.00200
C21         C  0.69159579  0.76535432  0.66454652     0.08400
C22         C  0.67031672  0.75267764  0.64736768     0.06500
H23         H  0.68633497  0.76426242  0.70477721     0.11600
H24         H  0.67308919  0.75374271  0.62767553     0.10400
N25         N  0.42171989  0.72188452  0.85988988    -0.23900
N26         N  0.43748708  0.70269510  0.86667250    -0.31800
C27         C  0.46281097  0.69464119  0.84873622     0.04400
C28         C  0.46292891  0.70946880  0.82974400     0.10400
C29         C  0.43661483  0.72657398  0.83732928    -0.02700
H30         H  0.47986603  0.67915751  0.84951356     0.11100
H31         H  0.42872894  0.74124996  0.82720546     0.12300
Cu32       Cu  0.42443249  0.68879977  0.90037162     0.44200
Cu33       Cu  0.37994547  0.73996245  0.88217749     0.42000
Cu34       Cu  0.35927369  0.71852046  0.94446902     0.43900
N35         N  0.41551319  0.67858853  0.93612484    -0.31300
N36         N  0.39327871  0.68947889  0.95289017    -0.25600
C37         C  0.39830303  0.67911062  0.97462399    -0.01700
C38         C  0.42457350  0.66086317  0.97103444     0.10500
C39         C  0.43479875  0.66114548  0.94651793     0.04300
H40         H  0.38510828  0.68480926  0.99180691     0.12000
H41         H  0.45651704  0.65003370  0.93709304     0.11100
N42         N  0.32758328  0.74591420  0.92904283    -0.32800
N43         N  0.33545505  0.75346748  0.90676514    -0.25000
C44         C  0.30832965  0.77034823  0.90205479    -0.00200
C45         C  0.28211731  0.77366322  0.92218497     0.08400
C46         C  0.29507210  0.75792602  0.93897534     0.06500
H47         H  0.30698692  0.77916925  0.88491295     0.11600
H48         H  0.28114484  0.75504232  0.95682222     0.10400
N49         N  0.03743071  0.86858888  0.85993987    -0.23900
N50         N  0.01640691  0.88644526  0.86683119    -0.31800
C51         C  0.99171967  0.89371410  0.84792807     0.04400
C52         C  0.99768980  0.87974603  0.82833380     0.10400
C53         C  0.02673797  0.86403478  0.83658047    -0.02700
H54         H  0.97159540  0.90826732  0.84829665     0.11100
H55         H  0.03979009  0.85048328  0.82623696     0.12300
Cu56       Cu  0.02494475  0.90047736  0.90139337     0.44200
Cu57       Cu  0.08177618  0.85176859  0.88209581     0.42000
Cu58       Cu  0.10591299  0.87412232  0.94178663     0.43900
N59         N  0.04329659  0.91248331  0.93574560    -0.31300
N60         N  0.07265359  0.90309315  0.95029100    -0.25600
C61         C  0.07963757  0.91611760  0.96976882    -0.01700
C62         C  0.05330483  0.93443529  0.96746179     0.10500
C63         C  0.03093519  0.93163803  0.94565808     0.04300
H64         H  0.10386521  0.91304102  0.98385009     0.12000
H65         H  0.00916101  0.94326056  0.93691172     0.11100
N66         N  0.13698236  0.84629493  0.92778754    -0.32800
N67         N  0.12781363  0.83821915  0.90593219    -0.25000
C68         C  0.15426225  0.82104051  0.90159747    -0.00200
C69         C  0.18137551  0.81811063  0.92163155     0.08400
C70         C  0.16965801  0.83438834  0.93791148     0.06500
H71         H  0.15448899  0.81173461  0.88480807     0.11600
H72         H  0.18448594  0.83767978  0.95551186     0.10400
N73         N  0.91081232  0.86874362  0.72620302    -0.23900
N74         N  0.93102825  0.88676874  0.71973702    -0.31800
C75         C  0.95350639  0.89427619  0.73925124     0.04400
C76         C  0.94682856  0.88027122  0.75876417     0.10400
C77         C  0.91972365  0.86429926  0.74984135    -0.02700
H78         H  0.97301267  0.90885814  0.73926070     0.11100
H79         H  0.90718753  0.85049244  0.75980376     0.12300
Cu80       Cu  0.92493310  0.90010276  0.68450855     0.44200
Cu81       Cu  0.87082296  0.85132023  0.70281321     0.42000
Cu82       Cu  0.84685234  0.87322335  0.64274960     0.43900
N83         N  0.91000275  0.91093666  0.64896778    -0.31300
N84         N  0.88157097  0.90154038  0.63407986    -0.25600
C85         C  0.87777464  0.91364484  0.61350748    -0.01700
C86         C  0.90530777  0.93131136  0.61541590     0.10500
C87         C  0.92494845  0.92913710  0.63815848     0.04300
H88         H  0.85529106  0.91030146  0.59868671     0.12000
H89         H  0.94698909  0.94051097  0.64672799     0.11100
N90         N  0.81844785  0.84470895  0.65643309    -0.32800
N91         N  0.82828253  0.83679071  0.67833688    -0.25000
C92         C  0.80503298  0.81869867  0.68235570    -0.00200
C93         C  0.77920767  0.81494736  0.66210296     0.08400
C94         C  0.78831294  0.83172345  0.64595066     0.06500
H95         H  0.80622166  0.80922715  0.69905601     0.11600
H96         H  0.77373680  0.83446042  0.62812527     0.10400
N97         N  0.55192748  0.58888351  0.51937662    -0.00100
C98         C  0.57585639  0.60189113  0.50465636     0.02500
C99         C  0.60823719  0.58986073  0.49338716    -0.20400
C100        C  0.60368794  0.56868975  0.50122117    -0.20600
C101        C  0.56873846  0.56854634  0.51703459     0.02400
H102        H  0.63086484  0.59556090  0.47971509     0.16100
H103        H  0.62202144  0.55470246  0.49479899     0.16200
N104        N  0.49505706  0.49531854  0.52214784    -0.00100
C105        C  0.49966786  0.47729879  0.50811034     0.02500
C106        C  0.53969014  0.47741856  0.49665562    -0.20400
C107        C  0.56006408  0.49631352  0.50368772    -0.20600
C108        C  0.53177893  0.50705661  0.51920525     0.02400
H109        H  0.55137281  0.46591507  0.48315514     0.16100
H110        H  0.59066157  0.50233786  0.49673464     0.16200
N111        N  0.45329124  0.60497475  0.56427977    -0.00100
C112        C  0.44752914  0.62324345  0.57782681     0.02500
C113        C  0.40706229  0.62299360  0.58877768    -0.20400
C114        C  0.38760743  0.60379955  0.58196979    -0.20600
C115        C  0.41683931  0.59298317  0.56708199     0.02400
H116        H  0.39448011  0.63463199  0.60187495     0.16100
H117        H  0.35704277  0.59761560  0.58879043     0.16200
N118        N  0.40023620  0.51079193  0.56970659    -0.00100
C119        C  0.37845824  0.49780009  0.58549758     0.02500
C120        C  0.34812352  0.50991535  0.59832671    -0.20400
C121        C  0.35170613  0.53109521  0.59031353    -0.20600
C122        C  0.38407160  0.53116435  0.57285864     0.02400
H123        H  0.32724343  0.50420210  0.61284572     0.16100
H124        H  0.33432859  0.54510483  0.59745391     0.16200
N125        N  0.00233480  0.98867627  0.51369867    -0.00100
C126        C  0.00480229  0.97081675  0.49920256     0.02500
C127        C  0.04039535  0.97221992  0.48393863    -0.20400
C128        C  0.06018158  0.99171974  0.48901055    -0.20600
C129        C  0.03600762  0.00155623  0.50720815     0.02400
H130        H  0.04920844  0.96102676  0.46946471     0.16100
H131        H  0.08743592  0.99863646  0.47929275     0.16200
N132        N  0.06050204  0.08349228  0.50897999    -0.00100
C133        C  0.08243934  0.09667591  0.49342191     0.02500
C134        C  0.10873208  0.08437086  0.47825251    -0.20400
C135        C  0.10250682  0.06291664  0.48453264    -0.20600
C136        C  0.07265396  0.06285871  0.50334021     0.02400
H137        H  0.12868603  0.09027964  0.46342054     0.16100
H138        H  0.11662186  0.04884854  0.47555312     0.16200
N139        N  0.91760023  0.00323881  0.56726147    -0.00100
C140        C  0.89548175  0.99035240  0.58306577     0.02500
C141        C  0.86643967  0.00277885  0.59644509    -0.20400
C142        C  0.87120085  0.02399987  0.58883609    -0.20600
C143        C  0.90295517  0.02382565  0.57103538     0.02400
H144        H  0.84577992  0.99720828  0.61113580     0.16100
H145        H  0.85511914  0.03816612  0.59650697     0.16200
N146        N  0.97599408  0.09736827  0.56287527    -0.00100
C147        C  0.97314965  0.11504567  0.57764568     0.02500
C148        C  0.93601654  0.11395225  0.59174338    -0.20400
C149        C  0.91557708  0.09485682  0.58563086    -0.20600
C150        C  0.94091659  0.08492329  0.56800410     0.02400
H151        H  0.92632866  0.12511319  0.60607254     0.16100
H152        H  0.88694826  0.08823741  0.59431248     0.16200
N153        N  0.54842440  0.37107404  0.85417399    -0.23900
N154        N  0.53033849  0.38992814  0.86025625    -0.31800
C155        C  0.50658123  0.39734678  0.84104071     0.04400
C156        C  0.51012638  0.38238556  0.82217095     0.10400
C157        C  0.53678188  0.36599015  0.83112508    -0.02700
H158        H  0.48827899  0.41248657  0.84080651     0.11100
H159        H  0.54721485  0.35145630  0.82156202     0.12300
Cu160      Cu  0.54016202  0.40429426  0.89465292     0.44200
Cu161      Cu  0.58932822  0.35318429  0.87701924     0.42000
Cu162      Cu  0.61654691  0.37533620  0.93600812     0.43900
N163        N  0.55695329  0.41488451  0.92995876    -0.31300
N164        N  0.58450747  0.40447332  0.94474715    -0.25600
C165        C  0.58991527  0.41630508  0.96529367    -0.01700
C166        C  0.56443743  0.43492496  0.96347599     0.10500
C167        C  0.54422481  0.43357781  0.94082367     0.04300
H168        H  0.61227324  0.41211483  0.97998154     0.12000
H169        H  0.52335966  0.44576917  0.93236827     0.11100
N170        N  0.64348282  0.34633794  0.92268448    -0.32800
N171        N  0.63270153  0.33826259  0.90107826    -0.25000
C172        C  0.65529658  0.31972477  0.89729008    -0.00200
C173        C  0.68154635  0.31590097  0.91743529     0.08400
C174        C  0.67349432  0.33306442  0.93322700     0.06500
H175        H  0.65326118  0.30995727  0.88087484     0.11600
H176        H  0.68860788  0.33584285  0.95086738     0.10400
N177        N  0.41951680  0.36905647  0.72121405    -0.23900
N178        N  0.43538962  0.38830515  0.71532813    -0.31800
C179        C  0.45820904  0.39607562  0.73453897     0.04400
C180        C  0.45646144  0.38098438  0.75331811     0.10400
C181        C  0.43179498  0.36406078  0.74427331    -0.02700
H182        H  0.47417978  0.41169994  0.73493788     0.11100
H183        H  0.42265358  0.34940393  0.75389335     0.12300
Cu184      Cu  0.42278576  0.40335877  0.68170300     0.44200
Cu185      Cu  0.37906282  0.35133322  0.69812298     0.42000
Cu186      Cu  0.34500487  0.37680880  0.64071877     0.43900
N187        N  0.40340831  0.41598205  0.64778676    -0.31300
N188        N  0.37502186  0.40655653  0.63293338    -0.25600
C189        C  0.36813516  0.41962971  0.61337704    -0.01700
C190        C  0.39361418  0.43798230  0.61599505     0.10500
C191        C  0.41526145  0.43518873  0.63804530     0.04300
H192        H  0.34511881  0.41637282  0.59879013     0.12000
H193        H  0.43677440  0.44666899  0.64685751     0.11100
N194        N  0.32044532  0.34717006  0.65353639    -0.32800
N195        N  0.33364130  0.33791886  0.67422892    -0.25000
C196        C  0.31089702  0.31957603  0.67788529    -0.00200
C197        C  0.28201851  0.31710059  0.65865709     0.08400
C198        C  0.28875040  0.33486138  0.64353970     0.06500
H199        H  0.31418920  0.30919050  0.69380532     0.11600
H200        H  0.27118180  0.33885056  0.62688312     0.10400
N201        N  0.89516842  0.18743864  0.94722361    -0.23900
N202        N  0.92279999  0.17821216  0.93174130    -0.31800
C203        C  0.94625127  0.16290779  0.94374601     0.04400
C204        C  0.93286062  0.16242462  0.96784384     0.10400
C205        C  0.90050399  0.17819135  0.96950305    -0.02700
H206        H  0.97173743  0.15306451  0.93558842     0.11100
H207        H  0.88259234  0.18282150  0.98571457     0.12300
Cu208      Cu  0.92928593  0.18700983  0.89496088     0.44200
Cu209      Cu  0.85221566  0.21263809  0.93731789     0.42000
Cu210      Cu  0.85541766  0.22810265  0.87285123     0.43900
N211        N  0.93069542  0.19891068  0.85911934    -0.31300
N212        N  0.90300963  0.21393400  0.85100574    -0.25600
C213        C  0.91254789  0.21875950  0.82759728    -0.01700
C214        C  0.94790574  0.20616999  0.82065800     0.10500
C215        C  0.95868032  0.19377444  0.84101965     0.04300
H216        H  0.89548968  0.23082321  0.81662313     0.12000
H217        H  0.98523121  0.18213932  0.84268669     0.11100
N218        N  0.81488616  0.24273247  0.89845338    -0.32800
N219        N  0.81384248  0.23751704  0.92196446    -0.25000
C220        C  0.78568237  0.25105687  0.93340247    -0.00200
C221        C  0.76846475  0.26533443  0.91619691     0.08400
C222        C  0.78754674  0.25959618  0.89432248     0.06500
H223        H  0.77876828  0.25070361  0.95279153     0.11600
H224        H  0.78258923  0.26736466  0.87673271     0.10400
N225        N  0.07530698  0.18761148  0.63000720    -0.23900
N226        N  0.04947439  0.17798649  0.64598712    -0.31800
C227        C  0.03031147  0.16087579  0.63522704     0.04400
C228        C  0.04449365  0.15953932  0.61136687     0.10400
C229        C  0.07292699  0.17676302  0.60851640    -0.02700
H230        H  0.00674756  0.15047904  0.64399473     0.11100
H231        H  0.08987797  0.18133509  0.59200143     0.12300
Cu232      Cu  0.03835314  0.18862222  0.68158257     0.44200
Cu233      Cu  0.11151504  0.21542326  0.63867734     0.42000
Cu234      Cu  0.09524621  0.23563108  0.70144676     0.43900
N235        N  0.03021739  0.20185362  0.71631673    -0.31300
N236        N  0.05133631  0.21933664  0.72370573    -0.25600
C237        C  0.03950662  0.22400619  0.74684328    -0.01700
C238        C  0.00954518  0.20870465  0.75428535     0.10500
C239        C  0.00432589  0.19491592  0.73453205     0.04300
H240        H  0.05180240  0.23751800  0.75742311     0.12000
H241        H  0.98331110  0.18089799  0.73345129     0.11100
N242        N  0.13818372  0.24919987  0.67640645    -0.32800
N243        N  0.14428019  0.24215162  0.65375848    -0.25000
C244        C  0.17487497  0.25459174  0.64305309    -0.00200
C245        C  0.18839807  0.27008209  0.65977094     0.08400
C246        C  0.16458898  0.26617720  0.68064143     0.06500
H247        H  0.18668469  0.25236561  0.62459764     0.11600
H248        H  0.16657205  0.27490216  0.69778802     0.10400
N249        N  0.40562301  0.58216623  0.06528503    -0.00100
C250        C  0.38402541  0.59506189  0.08136836     0.02500
C251        C  0.35122601  0.58346488  0.09248198    -0.20400
C252        C  0.35321356  0.56265274  0.08309946    -0.20600
C253        C  0.38711306  0.56229388  0.06656825     0.02400
H254        H  0.32982287  0.58913494  0.10685728     0.16100
H255        H  0.33391508  0.54893750  0.08891321     0.16200
N256        N  0.46133017  0.48935278  0.05788202    -0.00100
C257        C  0.45761987  0.47087295  0.07123612     0.02500
C258        C  0.41669183  0.46996538  0.08157979    -0.20400
C259        C  0.39484338  0.48868562  0.07457363    -0.20600
C260        C  0.42317146  0.50037840  0.06017952     0.02400
H261        H  0.40526164  0.45795483  0.09450088     0.16100
H262        H  0.36321772  0.49403448  0.08104195     0.16200
N263        N  0.49961987  0.59923937  0.01823211    -0.00100
C264        C  0.50236159  0.61781327  0.00491761     0.02500
C265        C  0.54153022  0.61822593  0.99257768    -0.20400
C266        C  0.56329722  0.59915001  0.99832187    -0.20600
C267        C  0.53668163  0.58774566  0.01398095     0.02400
H268        H  0.55186603  0.63035583  0.97950014     0.16100
H269        H  0.59380032  0.59355524  0.99056373     0.16200
N270        N  0.55885865  0.50585548  0.01283949    -0.00100
C271        C  0.58196513  0.49262322  0.99776183     0.02500
C272        C  0.61439879  0.50426496  0.98638325    -0.20400
C273        C  0.61063009  0.52542806  0.99449906    -0.20600
C274        C  0.57607531  0.52596060  0.01058971     0.02400
H275        H  0.63653353  0.49835907  0.97247853     0.16100
H276        H  0.62913625  0.53919412  0.98805293     0.16200
N277        N  0.54506447  0.71931582  0.35681862    -0.23900
N278        N  0.52862337  0.70043593  0.36367641    -0.31800
C279        C  0.50573021  0.69205867  0.34478391     0.04400
C280        C  0.50803306  0.70640263  0.32525588     0.10400
C281        C  0.53309606  0.72346054  0.33352069    -0.02700
H282        H  0.48891917  0.67665972  0.34520690     0.11100
H283        H  0.54235642  0.73776307  0.32328408     0.12300
Cu284      Cu  0.53909193  0.68723719  0.39860992     0.44200
Cu285      Cu  0.58464165  0.73832853  0.37904601     0.42000
Cu286      Cu  0.61035897  0.71793580  0.43971281     0.43900
N287        N  0.55427286  0.67784706  0.43455590    -0.31300
N288        N  0.58000393  0.68895858  0.44943740    -0.25600
C289        C  0.58459239  0.67791311  0.47066227    -0.01700
C290        C  0.56036610  0.65909194  0.46913463     0.10500
C291        C  0.54187605  0.65948409  0.44599319     0.04300
H292        H  0.60548297  0.68278773  0.48566476     0.12000
H293        H  0.52232592  0.64689668  0.43767880     0.11100
N294        N  0.63699869  0.74622847  0.42518282    -0.32800
N295        N  0.62715168  0.75371990  0.40309309    -0.25000
C296        C  0.65059934  0.77171908  0.39873722    -0.00200
C297        C  0.67630577  0.77573693  0.41902920     0.08400
C298        C  0.66708049  0.75928532  0.43544096     0.06500
H299        H  0.64986511  0.78082985  0.38178079     0.11600
H300        H  0.68185177  0.75667423  0.45324019     0.10400
N301        N  0.42129923  0.71768492  0.22317433    -0.23900
N302        N  0.44052986  0.69915735  0.21694706    -0.31800
C303        C  0.46238676  0.69122275  0.23659496     0.04400
C304        C  0.45631296  0.70545669  0.25595930     0.10400
C305        C  0.43021935  0.72201718  0.24680590    -0.02700
H306        H  0.48111837  0.67621360  0.23678261     0.11100
H307        H  0.41849913  0.73619022  0.25658537     0.12300
Cu308      Cu  0.43386928  0.68563317  0.18192814     0.44200
Cu309      Cu  0.38279382  0.73604982  0.19945895     0.42000
Cu310      Cu  0.35997485  0.71483895  0.13924805     0.43900
N311        N  0.41680458  0.67443373  0.14694421    -0.31300
N312        N  0.39005295  0.68486574  0.13171341    -0.25600
C313        C  0.38308244  0.67226819  0.11190578    -0.01700
C314        C  0.40664380  0.65311958  0.11468156     0.10500
C315        C  0.42744955  0.65498027  0.13711042     0.04300
H316        H  0.36073189  0.67629872  0.09716022     0.12000
H317        H  0.44701262  0.64262881  0.14622194     0.11100
N318        N  0.33222720  0.74371845  0.15256456    -0.32800
N319        N  0.34138495  0.75136944  0.17460516    -0.25000
C320        C  0.31742093  0.76942843  0.17865089    -0.00200
C321        C  0.29189123  0.77339927  0.15826091     0.08400
C322        C  0.30187464  0.75681189  0.14201090     0.06500
H323        H  0.31747612  0.77854536  0.19557182     0.11600
H324        H  0.28726533  0.75407727  0.12422817     0.10400
N325        N  0.91033805  0.86963806  0.35374728    -0.23900
N326        N  0.93325821  0.88662395  0.36086408    -0.31800
C327        C  0.95963601  0.89271050  0.34248967     0.04400
C328        C  0.95283300  0.87885231  0.32295218     0.10400
C329        C  0.92143790  0.86441832  0.33065813    -0.02700
H330        H  0.98233479  0.90606415  0.34339631     0.11100
H331        H  0.90791125  0.85102794  0.32036397     0.12300
Cu332      Cu  0.92772935  0.89979375  0.39577468     0.44200
Cu333      Cu  0.86581112  0.85452043  0.37646670     0.42000
Cu334      Cu  0.85468807  0.87390933  0.43978280     0.43900
N335        N  0.92075172  0.90950903  0.43202350    -0.31300
N336        N  0.89508059  0.90019702  0.44832519    -0.25600
C337        C  0.90038220  0.91031884  0.47008765    -0.01700
C338        C  0.93060268  0.92671753  0.46709080     0.10500
C339        C  0.94276169  0.92568784  0.44286728     0.04300
H340        H  0.88391355  0.90589710  0.48680873     0.12000
H341        H  0.96658028  0.93574850  0.43382358     0.11100
N342        N  0.81817162  0.84854648  0.42461448    -0.32800
N343        N  0.82260803  0.84180217  0.40173557    -0.25000
C344        C  0.79435630  0.82563985  0.39741597    -0.00200
C345        C  0.77100732  0.82197007  0.41845961     0.08400
C346        C  0.78674096  0.83671240  0.43541449     0.06500
H347        H  0.79092753  0.81727153  0.38011656     0.11600
H348        H  0.77601262  0.83879523  0.45410018     0.10400
N349        N  0.07630129  0.90130687  0.13229227    -0.23900
N350        N  0.04752993  0.90962683  0.14774740    -0.31800
C351        C  0.02579552  0.92600140  0.13667083     0.04400
C352        C  0.04147370  0.92819683  0.11320365     0.10400
C353        C  0.07351153  0.91232142  0.11089234    -0.02700
H354        H  0.00051710  0.93573584  0.14518668     0.11100
H355        H  0.09338498  0.90906462  0.09499054     0.12300
Cu356      Cu  0.03826615  0.89910933  0.18355472     0.44200
Cu357      Cu  0.11773673  0.87531418  0.14152012     0.42000
Cu358      Cu  0.10480995  0.85463649  0.20402507     0.43900
N359        N  0.03391278  0.88615009  0.21864951    -0.31300
N360        N  0.05860290  0.86968978  0.22622868    -0.25600
C361        C  0.04795514  0.86473491  0.24945561    -0.01700
C362        C  0.01504375  0.87876714  0.25675653     0.10500
C363        C  0.00686982  0.89213170  0.23684840     0.04300
H364        H  0.06281131  0.85177325  0.26012291     0.12000
H365        H  0.98285497  0.90510363  0.23558632     0.11100
N366        N  0.14809213  0.84158976  0.17860481    -0.32800
N367        N  0.15307157  0.84897508  0.15601119    -0.25000
C368        C  0.18352417  0.83668544  0.14466599    -0.00200
C369        C  0.19811120  0.82089384  0.16090056     0.08400
C370        C  0.17511291  0.82447618  0.18217759     0.06500
H371        H  0.19418860  0.83908594  0.12602501     0.11600
H372        H  0.17781260  0.81533643  0.19906445     0.10400
N373        N  0.38751011  0.41197947  0.44943615    -0.23900
N374        N  0.41234293  0.42226183  0.43347877    -0.31800
C375        C  0.43424463  0.43806462  0.44510373     0.04400
C376        C  0.42278404  0.43780477  0.46947694     0.10400
C377        C  0.39320079  0.42104775  0.47172440    -0.02700
H378        H  0.45797740  0.44851136  0.43655932     0.11100
H379        H  0.37797614  0.41543604  0.48836670     0.12300
Cu380      Cu  0.41923808  0.41365863  0.39687727     0.44200
Cu381      Cu  0.34939186  0.38514850  0.44010148     0.42000
Cu382      Cu  0.36247571  0.36634646  0.37693468     0.43900
N383        N  0.42545845  0.40104207  0.36175472    -0.31300
N384        N  0.40461816  0.38345378  0.35441451    -0.25600
C385        C  0.41656961  0.37875848  0.33131486    -0.01700
C386        C  0.44626628  0.39415865  0.32384555     0.10500
C387        C  0.45125585  0.40802775  0.34353026     0.04300
H388        H  0.40512801  0.36493595  0.32094023     0.12000
H389        H  0.47269032  0.42187858  0.34473119     0.11100
N390        N  0.32284015  0.35136483  0.40262940    -0.32800
N391        N  0.31771260  0.35806431  0.42547352    -0.25000
C392        C  0.29027747  0.34442970  0.43697679    -0.00200
C393        C  0.27787944  0.32847761  0.42057391     0.08400
C394        C  0.29895471  0.33337600  0.39904317     0.06500
H395        H  0.28035963  0.34596058  0.45587000     0.11600
H396        H  0.29724086  0.32447236  0.38200502     0.10400
N397        N  0.55856499  0.38404100  0.22996650    -0.23900
N398        N  0.53451916  0.40026427  0.22119965    -0.31800
C399        C  0.50633307  0.40687605  0.23856854     0.04400
C400        C  0.51317480  0.39418213  0.25917476     0.10400
C401        C  0.54642868  0.37988446  0.25314054    -0.02700
H402        H  0.48215128  0.41964975  0.23618566     0.11100
H403        H  0.56017897  0.36711395  0.26453468     0.12300
Cu404      Cu  0.54027407  0.41142723  0.18540363     0.44200
Cu405      Cu  0.60478126  0.36764601  0.20913626     0.42000
Cu406      Cu  0.61276869  0.38179256  0.14405505     0.43900
N407        N  0.54739310  0.41873060  0.14844530    -0.31300
N408        N  0.57281658  0.40792458  0.13306508    -0.25600
C409        C  0.56701249  0.41626223  0.11035367    -0.01700
C410        C  0.53678202  0.43311086  0.11174483     0.10500
C411        C  0.52507777  0.43415648  0.13604924     0.04300
H412        H  0.58273259  0.41015376  0.09403635     0.12000
H413        H  0.50090113  0.44489114  0.14404959     0.11100
N414        N  0.64941470  0.35707169  0.16111834    -0.32800
N415        N  0.64653645  0.35225970  0.18469306    -0.25000
C416        C  0.67444482  0.33586704  0.18999206    -0.00200
C417        C  0.69584890  0.33004686  0.16882317     0.08400
C418        C  0.67936540  0.34375695  0.15084334     0.06500
H419        H  0.67880643  0.32874314  0.20796784     0.11600
H420        H  0.68854551  0.34411009  0.13176069     0.10400
N421        N  0.05845789  0.22550528  0.35984793    -0.23900
N422        N  0.04036342  0.20678859  0.36575708    -0.31800
C423        C  0.01601861  0.19991077  0.34669663     0.04400
C424        C  0.01920516  0.21509885  0.32807062     0.10400
C425        C  0.04625511  0.23108200  0.33698906    -0.02700
H426        H  0.99787214  0.18489645  0.34633509     0.11100
H427        H  0.05681921  0.24554903  0.32747971     0.12300
Cu428      Cu  0.05191277  0.19172536  0.39946195     0.44200
Cu429      Cu  0.10051630  0.24196586  0.38282935     0.42000
Cu430      Cu  0.13279801  0.21696658  0.44056851     0.43900
N431        N  0.07001525  0.17931117  0.43367403    -0.31300
N432        N  0.09946514  0.18803023  0.44845325    -0.25600
C433        C  0.10444020  0.17501832  0.46825701    -0.01700
C434        C  0.07653437  0.15751930  0.46587852     0.10500
C435        C  0.05555539  0.16071083  0.44371627     0.04300
H436        H  0.12766555  0.17772695  0.48288671     0.12000
H437        H  0.03264540  0.14984655  0.43502436     0.11100
N438        N  0.15785005  0.24658709  0.42771541    -0.32800
N439        N  0.14501536  0.25551656  0.40678764    -0.25000
C440        C  0.16643892  0.27422794  0.40326458    -0.00200
C441        C  0.19415064  0.27736139  0.42282228     0.08400
C442        C  0.18815465  0.25956497  0.43804586     0.06500
H443        H  0.16258422  0.28460436  0.38737074     0.11600
H444        H  0.20481690  0.25618906  0.45515271     0.10400
N445        N  0.93045660  0.22952663  0.22696587    -0.23900
N446        N  0.94380615  0.20956975  0.22159110    -0.31800
C447        C  0.96557223  0.20126319  0.24103198     0.04400
C448        C  0.96574846  0.21678321  0.25934586     0.10400
C449        C  0.94333522  0.23447380  0.24985466    -0.02700
H450        H  0.97964898  0.18506483  0.24186693     0.11100
H451        H  0.93606500  0.24965024  0.25905741     0.12300
Cu452      Cu  0.93000070  0.19461578  0.18815954     0.44200
Cu453      Cu  0.89179001  0.24835863  0.20386102     0.42000
Cu454      Cu  0.85447452  0.22335987  0.14730307     0.43900
N455        N  0.91171229  0.18319871  0.15361583    -0.31300
N456        N  0.88428022  0.19351427  0.13870183    -0.25600
C457        C  0.87849972  0.18131677  0.11841780    -0.01700
C458        C  0.90375845  0.16260178  0.12062778     0.10500
C459        C  0.92404567  0.16427037  0.14319711     0.04300
H460        H  0.85652762  0.18545830  0.10353388     0.12000
H461        H  0.94517494  0.15226827  0.15178910     0.11100
N462        N  0.82993087  0.25288098  0.16088931    -0.32800
N463        N  0.84450958  0.26204628  0.18122384    -0.25000
C464        C  0.82124720  0.28027908  0.18565681    -0.00200
C465        C  0.79058135  0.28274875  0.16728643     0.08400
C466        C  0.79679487  0.26513831  0.15188146     0.06500
H467        H  0.82541620  0.29054962  0.20154770     0.11600
H468        H  0.77795224  0.26121185  0.13571618     0.10400
N469        N  0.97642229  0.99478324  0.07022308    -0.00100
C470        C  0.97553866  0.97727103  0.08534124     0.02500
C471        C  0.94400552  0.98012970  0.10300629    -0.20400
C472        C  0.92502861  0.00014777  0.09874722    -0.20600
C473        C  0.94561490  0.00879523  0.07861405     0.02400
H474        H  0.93714480  0.96933312  0.11815294     0.16100
H475        H  0.90035306  0.00799039  0.10984710     0.16200
N476        N  0.91608886  0.09009840  0.07418880    -0.00100
C477        C  0.89401861  0.10317820  0.08998320     0.02500
C478        C  0.86764989  0.09080539  0.10483941    -0.20400
C479        C  0.87412211  0.06942322  0.09821098    -0.20600
C480        C  0.90415610  0.06946810  0.07950173     0.02400
H481        H  0.84794435  0.09656808  0.11991862     0.16100
H482        H  0.86051400  0.05530086  0.10712656     0.16200
N483        N  0.05174956  0.00803846  0.01229892    -0.00100
C484        C  0.07012633  0.99494531  0.99515479     0.02500
C485        C  0.09617934  0.00703839  0.97983539    -0.20400
C486        C  0.09336903  0.02830637  0.98770240    -0.20600
C487        C  0.06573088  0.02845159  0.00756177     0.02400
H488        H  0.11377670  0.00120838  0.96399051     0.16100
H489        H  0.10827944  0.04227761  0.97916733     0.16200
N490        N  0.00214992  0.10345331  0.02108921    -0.00100
C491        C  0.00740396  0.12162184  0.00731540     0.02500
C492        C  0.04679441  0.12060540  0.99524162    -0.20400
C493        C  0.06600109  0.10102441  0.00147653    -0.20600
C494        C  0.03775105  0.09071695  0.01718100     0.02400
H495        H  0.05846294  0.13192039  0.98161221     0.16100
H496        H  0.09543211  0.09420894  0.99362284     0.16200
C497        C  0.04980493  0.04845570  0.01853891    -0.09900
C498        C  0.04101315  0.06750993  0.02166746    -0.11500
C499        C  0.94492143  0.09614556  0.05542382    -0.09900
C500        C  0.97005396  0.09985507  0.03896429    -0.11500
C501        C  0.00329425  0.99801708  0.04977457    -0.09900
C502        C  0.02534560  0.00191597  0.03207532    -0.11500
C503        C  0.93816025  0.03103117  0.07083817    -0.09900
C504        C  0.92528933  0.04969348  0.07117643    -0.11500
C505        C  0.90174955  0.12597875  0.09503518    -0.09900
C506        C  0.90382429  0.14362458  0.10488348    -0.11500
C507        C  0.99971058  0.21438993  0.30400032    -0.09900
C508        C  0.98420991  0.21491249  0.28360965    -0.11500
C509        C  0.72897707  0.31333653  0.16644095    -0.09900
C510        C  0.75691290  0.29930571  0.16596924    -0.11500
C511        C  0.22439930  0.29510881  0.42537926    -0.09900
C512        C  0.24893674  0.31040824  0.42456014    -0.11500
C513        C  0.48913796  0.39480945  0.28180923    -0.09900
C514        C  0.46933934  0.39476741  0.30089796    -0.11500
C515        C  0.00680344  0.95957555  0.08683258    -0.09900
C516        C  0.02664220  0.94442222  0.09583050    -0.11500
C517        C  0.97470657  0.87904207  0.29961464    -0.09900
C518        C  0.99309206  0.87902107  0.28007514    -0.11500
C519        C  0.25867604  0.79013251  0.15610875    -0.09900
C520        C  0.23099615  0.80427743  0.15703857    -0.11500
C521        C  0.73690835  0.80615319  0.42134418    -0.09900
C522        C  0.70891512  0.79241204  0.42134675    -0.11500
C523        C  0.48908087  0.70424964  0.30107106    -0.09900
C524        C  0.47410350  0.70396602  0.28050161    -0.11500
C525        C  0.55618082  0.54617787  0.01860793    -0.09900
C526        C  0.54417033  0.56497687  0.01965539    -0.11500
C527        C  0.49622079  0.49512674  0.04266241    -0.09900
C528        C  0.52491192  0.49993591  0.02865518    -0.11500
C529        C  0.49321211  0.45711246  0.07971129    -0.09900
C530        C  0.51673224  0.44565899  0.09222620    -0.11500
C531        C  0.43872834  0.58837243  0.04907121    -0.09900
C532        C  0.46631875  0.59344229  0.03451005    -0.11500
C533        C  0.40541157  0.54218353  0.05718757    -0.09900
C534        C  0.41645421  0.52331170  0.05518892    -0.11500
C535        C  0.40313891  0.63368102  0.09984296    -0.09900
C536        C  0.39677277  0.61657225  0.08944271    -0.11500
C537        C  0.95151393  0.14890950  0.98702120    -0.09900
C538        C  0.97335473  0.13661470  0.99950823    -0.11500
C539        C  0.98806609  0.20746358  0.77772865    -0.09900
C540        C  0.96993663  0.20665101  0.79733912    -0.11500
C541        C  0.24904881  0.30050609  0.65651158    -0.09900
C542        C  0.22145754  0.28651938  0.65684272    -0.11500
C543        C  0.56570353  0.45376464  0.97936557    -0.09900
C544        C  0.57042755  0.47082165  0.99014271    -0.11500
C545        C  0.71244025  0.29818569  0.92021017    -0.09900
C546        C  0.73801224  0.28307879  0.91983649    -0.11500
C547        C  0.49055795  0.38330438  0.79804142    -0.09900
C548        C  0.47501280  0.38273997  0.77762427    -0.11500
C549        C  0.02823014  0.14433413  0.59336435    -0.09900
C550        C  0.00695316  0.13073650  0.58273607    -0.11500
C551        C  0.92277230  0.04365793  0.56220488    -0.09900
C552        C  0.93457526  0.06239532  0.56116346    -0.11500
C553        C  0.03169966  0.08952311  0.52782086    -0.09900
C554        C  0.00686200  0.09343116  0.54438732    -0.11500
C555        C  0.07584314  0.11982657  0.48953417    -0.09900
C556        C  0.07501182  0.13795762  0.48071277    -0.11500
C557        C  0.97220847  0.99275574  0.53253563    -0.09900
C558        C  0.94738108  0.99687668  0.54904521    -0.11500
C559        C  0.05314787  0.04299887  0.51225095    -0.09900
C560        C  0.04182883  0.02421149  0.51357304    -0.11500
C561        C  0.94889030  0.94139938  0.48497901    -0.09900
C562        C  0.97109911  0.95488596  0.49512670    -0.11500
C563        C  0.39235211  0.45761502  0.60126311    -0.09900
C564        C  0.38859492  0.47534895  0.59166614    -0.11500
C565        C  0.41258994  0.57004285  0.56171289    -0.09900
C566        C  0.40249457  0.55112378  0.56355675    -0.11500
C567        C  0.46069499  0.50020802  0.53823621    -0.09900
C568        C  0.43275458  0.50466676  0.55294454    -0.11500
C569        C  0.46518008  0.46290386  0.50040468    -0.09900
C570        C  0.44237397  0.45095774  0.48839522    -0.11500
C571        C  0.48865812  0.59986640  0.54894378    -0.09900
C572        C  0.51767570  0.59513484  0.53498775    -0.11500
C573        C  0.53731518  0.52972091  0.52555516    -0.09900
C574        C  0.54853813  0.54853510  0.52485843    -0.11500
C575        C  0.56508364  0.62387772  0.49704642    -0.09900
C576        C  0.56112215  0.64083884  0.48589425    -0.11500
C577        C  0.90674694  0.95026760  0.59954251    -0.09900
C578        C  0.90460488  0.96776113  0.58920862    -0.11500
C579        C  0.05573749  0.95434407  0.98158784    -0.09900
C580        C  0.06028938  0.97229362  0.99039932    -0.11500
C581        C  0.96448502  0.88159581  0.78333154    -0.09900
C582        C  0.97913038  0.88139658  0.80397960    -0.11500
C583        C  0.44391326  0.64610951  0.98881450    -0.09900
C584        C  0.46713117  0.63294232  0.99925914    -0.11500
C585        C  0.24650328  0.78924546  0.92407412    -0.09900
C586        C  0.21675473  0.80240736  0.92387141    -0.11500
C587        C  0.48113057  0.63816691  0.58561796    -0.09900
C588        C  0.50314461  0.65062241  0.59748518    -0.11500
C589        C  0.72183550  0.78291773  0.66048829    -0.09900
C590        C  0.74766285  0.79770597  0.65967317    -0.11500
C591        C  0.50454053  0.70530091  0.78753331    -0.09900
C592        C  0.48555527  0.70729460  0.80676238    -0.11500
loop_ 
_geom_bond_atom_site_label_1 
_geom_bond_atom_site_label_2 
_geom_bond_distance 
_geom_bond_site_symmetry_2 
_ccdc_geom_bond_type 
N1            N2   1.322       .  A
N1            C5   1.347       .  A
N1           Cu9   2.077       .  S
N2            C3   1.348       .  A
N2           Cu8   2.084       .  S
C3            C4   1.383       .  A
C3            H6   1.082       .  S
C4            C5   1.381       .  A
C4          C591   1.444       .  S
C5            H7   1.082       .  S
Cu8          N11   2.085       .  S
Cu9          N19   2.078       .  S
Cu10         N12   2.098       .  S
Cu10         N18   2.098       .  S
N11          N12   1.325       .  A
N11          C15   1.345       .  A
N12          C13   1.352       .  A
C13          C14   1.385       .  A
C13          H16   1.082       .  S
C14          C15   1.380       .  A
C14         C588   1.448       .  S
C15          H17   1.082       .  S
N18          N19   1.324       .  A
N18          C22   1.351       .  A
N19          C20   1.346       .  A
C20          C21   1.380       .  A
C20          H23   1.082       .  S
C21          C22   1.385       .  A
C21         C589   1.447       .  S
C22          H24   1.082       .  S
N25          N26   1.322       .  A
N25          C29   1.349       .  A
N25         Cu33   2.086       .  S
N26          C27   1.346       .  A
N26         Cu32   2.071       .  S
C27          C28   1.380       .  A
C27          H30   1.082       .  S
C28          C29   1.384       .  A
C28         C592   1.444       .  S
C29          H31   1.082       .  S
Cu32         N35   2.071       .  S
Cu33         N43   2.088       .  S
Cu34         N36   2.107       .  S
Cu34         N42   2.108       .  S
N35          N36   1.324       .  A
N35          C39   1.343       .  A
N36          C37   1.354       .  A
C37          C38   1.389       .  A
C37          H40   1.082       .  S
C38          C39   1.378       .  A
C38         C583   1.449       .  S
C39          H41   1.082       .  S
N42          N43   1.326       .  A
N42          C46   1.352       .  A
N43          C44   1.347       .  A
C44          C45   1.380       .  A
C44          H47   1.082       .  S
C45          C46   1.386       .  A
C45         C585   1.450       .  S
C46          H48   1.082       .  S
N49          N50   1.324       .  A
N49          C53   1.347       .  A
N49         Cu57   2.082       .  S
N50          C51   1.350   1_455  A
N50         Cu56   2.093       .  S
C51          C52   1.385       .  A
C51          H54   1.082       .  S
C52          C53   1.381   1_655  A
C52         C582   1.448       .  S
C53          H55   1.082       .  S
Cu56         N59   2.094       .  S
Cu57         N67   2.083       .  S
Cu58         N60   2.097       .  S
Cu58         N66   2.097       .  S
N59          N60   1.325       .  A
N59          C63   1.348       .  A
N60          C61   1.350       .  A
C61          C62   1.384       .  A
C61          H64   1.082       .  S
C62          C63   1.383       .  A
C62         C579   1.450       .  S
C63          H65   1.082       .  S
N66          N67   1.324       .  A
N66          C70   1.351       .  A
N67          C68   1.347       .  A
C68          C69   1.382       .  A
C68          H71   1.082       .  S
C69          C70   1.386       .  A
C69         C586   1.450       .  S
C70          H72   1.082       .  S
N73          N74   1.323       .  A
N73          C77   1.346       .  A
N73         Cu81   2.072       .  S
N74          C75   1.351       .  A
N74         Cu80   2.098       .  S
C75          C76   1.386       .  A
C75          H78   1.082       .  S
C76          C77   1.380       .  A
C76         C581   1.448       .  S
C77          H79   1.082       .  S
Cu80         N83   2.099       .  S
Cu81         N91   2.072       .  S
Cu82         N84   2.103       .  S
Cu82         N90   2.102       .  S
N83          N84   1.326       .  A
N83          C87   1.349       .  A
N84          C85   1.351       .  A
C85          C86   1.385       .  A
C85          H88   1.082       .  S
C86          C87   1.384       .  A
C86         C577   1.452       .  S
C87          H89   1.082       .  S
N90          N91   1.324       .  A
N90          C94   1.352       .  A
N91          C92   1.345       .  A
C92          C93   1.378       .  A
C92          H95   1.082       .  S
C93          C94   1.387       .  A
C93         C590   1.447       .  S
C94          H96   1.082       .  S
N97         C101   1.354       .  A
N97          C98   1.356       .  A
N97         C572   1.408       .  S
C98          C99   1.381       .  A
C98         C575   1.447       .  S
C99         C100   1.377       .  A
C99         H102   1.083       .  S
C100        C101   1.381       .  A
C100        H103   1.083       .  S
C101        C574   1.447       .  S
N104        C108   1.353       .  A
N104        C105   1.355       .  A
N104        C567   1.407       .  S
C105        C106   1.381       .  A
C105        C569   1.446       .  S
C106        C107   1.378       .  A
C106        H109   1.083       .  S
C107        C108   1.381       .  A
C107        H110   1.083       .  S
C108        C573   1.447       .  S
N111        C115   1.354       .  A
N111        C112   1.356       .  A
N111        C571   1.408       .  S
C112        C113   1.381       .  A
C112        C587   1.448       .  S
C113        C114   1.377       .  A
C113        H116   1.083       .  S
C114        C115   1.380       .  A
C114        H117   1.083       .  S
C115        C565   1.447       .  S
N118        C122   1.354       .  A
N118        C119   1.357       .  A
N118        C568   1.407       .  S
C119        C120   1.381       .  A
C119        C564   1.450       .  S
C120        C121   1.378       .  A
C120        H123   1.082       .  S
C121        C122   1.380       .  A
C121        H124   1.083       .  S
C122        C566   1.448       .  S
N125        C129   1.355   1_565  A
N125        C126   1.356       .  A
N125        C557   1.408   1_455  S
C126        C127   1.381       .  A
C126        C562   1.447   1_455  S
C127        C128   1.376       .  A
C127        H130   1.083       .  S
C128        C129   1.380   1_565  A
C128        H131   1.083       .  S
C129        C560   1.448       .  S
N132        C136   1.354       .  A
N132        C133   1.359       .  A
N132        C553   1.408       .  S
C133        C134   1.381       .  A
C133        C555   1.450       .  S
C134        C135   1.377       .  A
C134        H137   1.083       .  S
C135        C136   1.380       .  A
C135        H138   1.083       .  S
C136        C559   1.449       .  S
N139        C143   1.355       .  A
N139        C140   1.359   1_545  A
N139        C558   1.408   1_545  S
C140        C141   1.381   1_565  A
C140        C578   1.452       .  S
C141        C142   1.377       .  A
C141        H144   1.083   1_545  S
C142        C143   1.380       .  A
C142        H145   1.083       .  S
C143        C551   1.450       .  S
N146        C150   1.356       .  A
N146        C147   1.357       .  A
N146        C554   1.408   1_655  S
C147        C148   1.381       .  A
C147        C550   1.448   1_655  S
C148        C149   1.376       .  A
C148        H151   1.083       .  S
C149        C150   1.380       .  A
C149        H152   1.083       .  S
C150        C552   1.449       .  S
N153        N154   1.323       .  A
N153        C157   1.345       .  A
N153       Cu161   2.072       .  S
N154        C155   1.351       .  A
N154       Cu160   2.099       .  S
C155        C156   1.386       .  A
C155        H158   1.082       .  S
C156        C157   1.379       .  A
C156        C547   1.447       .  S
C157        H159   1.082       .  S
Cu160       N163   2.100       .  S
Cu161       N171   2.072       .  S
Cu162       N164   2.091       .  S
Cu162       N170   2.090       .  S
N163        N164   1.326       .  A
N163        C167   1.349       .  A
N164        C165   1.349       .  A
C165        C166   1.382       .  A
C165        H168   1.082       .  S
C166        C167   1.384       .  A
C166        C543   1.449       .  S
C167        H169   1.082       .  S
N170        N171   1.323       .  A
N170        C174   1.350       .  A
N171        C172   1.345       .  A
C172        C173   1.379       .  A
C172        H175   1.082       .  S
C173        C174   1.385       .  A
C173        C545   1.444       .  S
C174        H176   1.082       .  S
N177        N178   1.323       .  A
N177        C181   1.347       .  A
N177       Cu185   2.081       .  S
N178        C179   1.349       .  A
N178       Cu184   2.088       .  S
C179        C180   1.384       .  A
C179        H182   1.082       .  S
C180        C181   1.382       .  A
C180        C548   1.447       .  S
C181        H183   1.082       .  S
Cu184       N187   2.089       .  S
Cu185       N195   2.081       .  S
Cu186       N188   2.098       .  S
Cu186       N194   2.098       .  S
N187        N188   1.325       .  A
N187        C191   1.348       .  A
N188        C189   1.350       .  A
C189        C190   1.385       .  A
C189        H192   1.082       .  S
C190        C191   1.382       .  A
C190        C563   1.449       .  S
C191        H193   1.082       .  S
N194        N195   1.324       .  A
N194        C198   1.351       .  A
N195        C196   1.346       .  A
C196        C197   1.380       .  A
C196        H199   1.082       .  S
C197        C198   1.385       .  A
C197        C541   1.447       .  S
C198        H200   1.082       .  S
N201        N202   1.325       .  A
N201        C205   1.351       .  A
N201       Cu209   2.092       .  S
N202        C203   1.346       .  A
N202       Cu208   2.091       .  S
C203        C204   1.382       .  A
C203        H206   1.082       .  S
C204        C205   1.384       .  A
C204        C537   1.448       .  S
C205        H207   1.082       .  S
Cu208       N211   2.090       .  S
Cu209       N219   2.092       .  S
Cu210       N212   2.076       .  S
Cu210       N218   2.077       .  S
N211        N212   1.323       .  A
N211        C215   1.349       .  A
N212        C213   1.347       .  A
C213        C214   1.381       .  A
C213        H216   1.082       .  S
C214        C215   1.384       .  A
C214        C540   1.446       .  S
C215        H217   1.082       .  S
N218        N219   1.324       .  A
N218        C222   1.345       .  A
N219        C220   1.350       .  A
C220        C221   1.384       .  A
C220        H223   1.082       .  S
C221        C222   1.379       .  A
C221        C546   1.444       .  S
C222        H224   1.082       .  S
N225        N226   1.325       .  A
N225        C229   1.353       .  A
N225       Cu233   2.100       .  S
N226        C227   1.344       .  A
N226       Cu232   2.082       .  S
C227        C228   1.379       .  A
C227        H230   1.082       .  S
C228        C229   1.387       .  A
C228        C549   1.448       .  S
C229        H231   1.082       .  S
Cu232       N235   2.081       .  S
Cu233       N243   2.100       .  S
Cu234       N236   2.082       .  S
Cu234       N242   2.083       .  S
N235        N236   1.322       .  A
N235        C239   1.348       .  A
N236        C237   1.348       .  A
C237        C238   1.383       .  A
C237        H240   1.082       .  S
C238        C239   1.383       .  A
C238        C539   1.446   1_455  S
C239        H241   1.082   1_455  S
N242        N243   1.325       .  A
N242        C246   1.346       .  A
N243        C244   1.351       .  A
C244        C245   1.385       .  A
C244        H247   1.082       .  S
C245        C246   1.379       .  A
C245        C542   1.447       .  S
C246        H248   1.082       .  S
N249        C253   1.353       .  A
N249        C250   1.356       .  A
N249        C531   1.406       .  S
C250        C251   1.381       .  A
C250        C536   1.450       .  S
C251        C252   1.379       .  A
C251        H254   1.082       .  S
C252        C253   1.381       .  A
C252        H255   1.082       .  S
C253        C533   1.448       .  S
N256        C260   1.353       .  A
N256        C257   1.355       .  A
N256        C527   1.407       .  S
C257        C258   1.381       .  A
C257        C529   1.448       .  S
C258        C259   1.378       .  A
C258        H261   1.083       .  S
C259        C260   1.381       .  A
C259        H262   1.083       .  S
C260        C534   1.447       .  S
N263        C267   1.354       .  A
N263        C264   1.356       .  A
N263        C532   1.406       .  S
C264        C265   1.381   1_554  A
C264        C584   1.450   1_554  S
C265        C266   1.378       .  A
C265        H268   1.082       .  S
C266        C267   1.381   1_556  A
C266        H269   1.083       .  S
C267        C526   1.448       .  S
N270        C274   1.354       .  A
N270        C271   1.356   1_554  A
N270        C528   1.407       .  S
C271        C272   1.381       .  A
C271        C544   1.450       .  S
C272        C273   1.378       .  A
C272        H275   1.082       .  S
C273        C274   1.381   1_556  A
C273        H276   1.082       .  S
C274        C525   1.448       .  S
N277        N278   1.324       .  A
N277        C281   1.346       .  A
N277       Cu285   2.080       .  S
N278        C279   1.351       .  A
N278       Cu284   2.095       .  S
C279        C280   1.385       .  A
C279        H282   1.082       .  S
C280        C281   1.380       .  A
C280        C523   1.448       .  S
C281        H283   1.082       .  S
Cu284       N287   2.095       .  S
Cu285       N295   2.081       .  S
Cu286       N288   2.086       .  S
Cu286       N294   2.085       .  S
N287        N288   1.325       .  A
N287        C291   1.348       .  A
N288        C289   1.349       .  A
C289        C290   1.383       .  A
C289        H292   1.082       .  S
C290        C291   1.383       .  A
C290        C576   1.447       .  S
C291        H293   1.082       .  S
N294        N295   1.324       .  A
N294        C298   1.348       .  A
N295        C296   1.346       .  A
C296        C297   1.381       .  A
C296        H299   1.082       .  S
C297        C298   1.382       .  A
C297        C522   1.444       .  S
C298        H300   1.082       .  S
N301        N302   1.323       .  A
N301        C305   1.346       .  A
N301       Cu309   2.074       .  S
N302        C303   1.351       .  A
N302       Cu308   2.097       .  S
C303        C304   1.386       .  A
C303        H306   1.082       .  S
C304        C305   1.380       .  A
C304        C524   1.448       .  S
C305        H307   1.082       .  S
Cu308       N311   2.098       .  S
Cu309       N319   2.073       .  S
Cu310       N312   2.094       .  S
Cu310       N318   2.094       .  S
N311        N312   1.326       .  A
N311        C315   1.349       .  A
N312        C313   1.349       .  A
C313        C314   1.383       .  A
C313        H316   1.082       .  S
C314        C315   1.384       .  A
C314        C535   1.449       .  S
C315        H317   1.082       .  S
N318        N319   1.323       .  A
N318        C322   1.351       .  A
N319        C320   1.344       .  A
C320        C321   1.378       .  A
C320        H323   1.082       .  S
C321        C322   1.386       .  A
C321        C519   1.445       .  S
C322        H324   1.082       .  S
N325        N326   1.321       .  A
N325        C329   1.347       .  A
N325       Cu333   2.075       .  S
N326        C327   1.348       .  A
N326       Cu332   2.080       .  S
C327        C328   1.383       .  A
C327        H330   1.082       .  S
C328        C329   1.382       .  A
C328        C517   1.444       .  S
C329        H331   1.082       .  S
Cu332       N335   2.081       .  S
Cu333       N343   2.076       .  S
Cu334       N336   2.096       .  S
Cu334       N342   2.097       .  S
N335        N336   1.325       .  A
N335        C339   1.343       .  A
N336        C337   1.353       .  A
C337        C338   1.385       .  A
C337        H340   1.082       .  S
C338        C339   1.379       .  A
C338        C561   1.446       .  S
C339        H341   1.082       .  S
N342        N343   1.325       .  A
N342        C346   1.351       .  A
N343        C344   1.344       .  A
C344        C345   1.377       .  A
C344        H347   1.082       .  S
C345        C346   1.385       .  A
C345        C521   1.443       .  S
C346        H348   1.082       .  S
N349        N350   1.324       .  A
N349        C353   1.352       .  A
N349       Cu357   2.091       .  S
N350        C351   1.343       .  A
N350       Cu356   2.081       .  S
C351        C352   1.379       .  A
C351        H354   1.082       .  S
C352        C353   1.384       .  A
C352        C516   1.444       .  S
C353        H355   1.082       .  S
Cu356       N359   2.081       .  S
Cu357       N367   2.091       .  S
Cu358       N360   2.082       .  S
Cu358       N366   2.083       .  S
N359        N360   1.322       .  A
N359        C363   1.348       .  A
N360        C361   1.347       .  A
C361        C362   1.382       .  A
C361        H364   1.082       .  S
C362        C363   1.382       .  A
C362        C518   1.444   1_455  S
C363        H365   1.082   1_455  S
N366        N367   1.325       .  A
N366        C370   1.346       .  A
N367        C368   1.350       .  A
C368        C369   1.383       .  A
C368        H371   1.082       .  S
C369        C370   1.380       .  A
C369        C520   1.445       .  S
C370        H372   1.082       .  S
N373        N374   1.324       .  A
N373        C377   1.351       .  A
N373       Cu381   2.092       .  S
N374        C375   1.344       .  A
N374       Cu380   2.081       .  S
C375        C376   1.379       .  A
C375        H378   1.082       .  S
C376        C377   1.384       .  A
C376        C570   1.445       .  S
C377        H379   1.082       .  S
Cu380       N383   2.080       .  S
Cu381       N391   2.092       .  S
Cu382       N384   2.080       .  S
Cu382       N390   2.081       .  S
N383        N384   1.322       .  A
N383        C387   1.347       .  A
N384        C385   1.347       .  A
C385        C386   1.382       .  A
C385        H388   1.082       .  S
C386        C387   1.382       .  A
C386        C514   1.444       .  S
C387        H389   1.082       .  S
N390        N391   1.325       .  A
N390        C394   1.346       .  A
N391        C392   1.350       .  A
C392        C393   1.384       .  A
C392        H395   1.082       .  S
C393        C394   1.380       .  A
C393        C512   1.445       .  S
C394        H396   1.082       .  S
N397        N398   1.322       .  A
N397        C401   1.347       .  A
N397       Cu405   2.077       .  S
N398        C399   1.348       .  A
N398       Cu404   2.081       .  S
C399        C400   1.383       .  A
C399        H402   1.082       .  S
C400        C401   1.381       .  A
C400        C513   1.444       .  S
C401        H403   1.082       .  S
Cu404       N407   2.081       .  S
Cu405       N415   2.078       .  S
Cu406       N408   2.096       .  S
Cu406       N414   2.096       .  S
N407        N408   1.324       .  A
N407        C411   1.344       .  A
N408        C409   1.352       .  A
C409        C410   1.386       .  A
C409        H412   1.082       .  S
C410        C411   1.379       .  A
C410        C530   1.446       .  S
C411        H413   1.082       .  S
N414        N415   1.325       .  A
N414        C418   1.350       .  A
N415        C416   1.346       .  A
C416        C417   1.379       .  A
C416        H419   1.082       .  S
C417        C418   1.384       .  A
C417        C509   1.444       .  S
C418        H420   1.082       .  S
N421        N422   1.322       .  A
N421        C425   1.345       .  A
N421       Cu429   2.067       .  S
N422        C423   1.349       .  A
N422       Cu428   2.087       .  S
C423        C424   1.384       .  A
C423        H426   1.082   1_455  S
C424        C425   1.379       .  A
C424        C507   1.443   1_455  S
C425        H427   1.082       .  S
Cu428       N431   2.088       .  S
Cu429       N439   2.068       .  S
Cu430       N432   2.104       .  S
Cu430       N438   2.103       .  S
N431        N432   1.326       .  A
N431        C435   1.347       .  A
N432        C433   1.352       .  A
C433        C434   1.386       .  A
C433        H436   1.082       .  S
C434        C435   1.381       .  A
C434        C556   1.450       .  S
C435        H437   1.082       .  S
N438        N439   1.324       .  A
N438        C442   1.352       .  A
N439        C440   1.344       .  A
C440        C441   1.377       .  A
C440        H443   1.082       .  S
C441        C442   1.387       .  A
C441        C511   1.445       .  S
C442        H444   1.082       .  S
N445        N446   1.323       .  A
N445        C449   1.346       .  A
N445       Cu453   2.072       .  S
N446        C447   1.349       .  A
N446       Cu452   2.089       .  S
C447        C448   1.383       .  A
C447        H450   1.082       .  S
C448        C449   1.380       .  A
C448        C508   1.443       .  S
C449        H451   1.082       .  S
Cu452       N455   2.090       .  S
Cu453       N463   2.072       .  S
Cu454       N456   2.096       .  S
Cu454       N462   2.096       .  S
N455        N456   1.325       .  A
N455        C459   1.348       .  A
N456        C457   1.351       .  A
C457        C458   1.385       .  A
C457        H460   1.082       .  S
C458        C459   1.383       .  A
C458        C506   1.450       .  S
C459        H461   1.082       .  S
N462        N463   1.324       .  A
N462        C466   1.350       .  A
N463        C464   1.345       .  A
C464        C465   1.379       .  A
C464        H467   1.082       .  S
C465        C466   1.384       .  A
C465        C510   1.444       .  S
C466        H468   1.082       .  S
N469        C473   1.355   1_565  A
N469        C470   1.356       .  A
N469        C501   1.407   1_655  S
C470        C471   1.380       .  A
C470        C515   1.445   1_655  S
C471        C472   1.375   1_565  A
C471        H474   1.083       .  S
C472        C473   1.380       .  A
C472        H475   1.083       .  S
C473        C503   1.446       .  S
N476        C480   1.354       .  A
N476        C477   1.359       .  A
N476        C499   1.409       .  S
C477        C478   1.381       .  A
C477        C505   1.450       .  S
C478        C479   1.376       .  A
C478        H481   1.083       .  S
C479        C480   1.380       .  A
C479        H482   1.083       .  S
C480        C504   1.447       .  S
N483        C487   1.354       .  A
N483        C484   1.357   1_544  A
N483        C502   1.407       .  S
C484        C485   1.381   1_565  A
C484        C580   1.450       .  S
C485        C486   1.378       .  A
C485        H488   1.082       .  S
C486        C487   1.381   1_556  A
C486        H489   1.083       .  S
C487        C497   1.450       .  S
N490        C494   1.355       .  A
N490        C491   1.357       .  A
N490        C500   1.409   1_455  S
C491        C492   1.381   1_554  A
C491        C538   1.448   1_454  S
C492        C493   1.376   1_556  A
C492        H495   1.083       .  S
C493        C494   1.380       .  A
C493        H496   1.083   1_554  S
C494        C498   1.449       .  S
C497        C498   1.211       .  T
C499        C500   1.210       .  T
C501        C502   1.208   1_565  T
C503        C504   1.209       .  T
C505        C506   1.213       .  T
C507        C508   1.209       .  T
C509        C510   1.210       .  T
C511        C512   1.210       .  T
C513        C514   1.210       .  T
C515        C516   1.210       .  T
C517        C518   1.210       .  T
C519        C520   1.210       .  T
C521        C522   1.210       .  T
C523        C524   1.212       .  T
C525        C526   1.211       .  T
C527        C528   1.208       .  T
C529        C530   1.211       .  T
C531        C532   1.207       .  T
C533        C534   1.210       .  T
C535        C536   1.213       .  T
C537        C538   1.212       .  T
C539        C540   1.211       .  T
C541        C542   1.212       .  T
C543        C544   1.212       .  T
C545        C546   1.210       .  T
C547        C548   1.212       .  T
C549        C550   1.212       .  T
C551        C552   1.211       .  T
C553        C554   1.209       .  T
C555        C556   1.213       .  T
C557        C558   1.209       .  T
C559        C560   1.211       .  T
C561        C562   1.211       .  T
C563        C564   1.213       .  T
C565        C566   1.210       .  T
C567        C568   1.208       .  T
C569        C570   1.210       .  T
C571        C572   1.209       .  T
C573        C574   1.210       .  T
C575        C576   1.211       .  T
C577        C578   1.214       .  T
C579        C580   1.213       .  T
C581        C582   1.212       .  T
C583        C584   1.213       .  T
C585        C586   1.213       .  T
C587        C588   1.212       .  T
C589        C590   1.212       .  T
C591        C592   1.210       .  T
