geometry optimzed in LAMMPS
_audit_creation_date              2020-11-30 
_audit_creation_method            'lammps2cif' 
_symmetry_space_group_name_H-M    'P1' 
_symmetry_Int_Tables_number       1 
_symmetry_cell_setting            triclinic 
loop_ 
_symmetry_equiv_pos_as_xyz 
  x,y,z 
_cell_length_a                    38.55023844 
_cell_length_b                    43.141173765268974 
_cell_length_c                    42.489447472184885 
_cell_angle_alpha                 90.00180698691288 
_cell_angle_beta                  89.99959613299336 
_cell_angle_gamma                 90.00894092652277 
loop_ 
_atom_site_label 
_atom_site_type_symbol 
_atom_site_fract_x 
_atom_site_fract_y 
_atom_site_fract_z 
_atom_site_charge 
O1          O  0.39678853  0.28407706  0.22197010    -0.56100
C2          C  0.41729293  0.22977561  0.30964534     0.76500
O3          O  0.49456801  0.27843827  0.27019643    -0.57300
C4          C  0.41039948  0.30957268  0.21338238     0.76500
C5          C  0.40114346  0.32493895  0.31629099     0.78900
Cd6        Cd  0.43003184  0.28194841  0.27210984     1.37500
O7          O  0.39748807  0.23480734  0.28615326    -0.56100
O8          O  0.38328013  0.30435706  0.30247165    -0.54900
C9          C  0.49461553  0.25356327  0.25396249     0.78800
O10         O  0.43344116  0.32583765  0.31007488    -0.57300
O11         O  0.44063301  0.24953704  0.31571379    -0.55800
O12         O  0.43109279  0.32247176  0.23248859    -0.55700
O13         O  0.46543393  0.24332641  0.24515600    -0.54900
O14         O  0.43911876  0.19573798  0.34804997    -0.56100
C15         C  0.39979078  0.16770396  0.43027928     0.76500
O16         O  0.41355660  0.09859328  0.33953112    -0.57300
C17         C  0.41506695  0.20198823  0.32895024     0.76500
C18         C  0.48884472  0.13500473  0.37260913     0.78900
Cd19       Cd  0.41569938  0.14774767  0.36760802     1.37500
O20         O  0.39041011  0.18393457  0.40700219    -0.56100
O21         O  0.47425830  0.13857314  0.34616045    -0.54900
C22         C  0.38110429  0.09719912  0.33602206     0.78800
O23         O  0.46939305  0.13504699  0.39656559    -0.57300
O24         O  0.41027855  0.14050150  0.42442691    -0.55800
O25         O  0.39012556  0.18304222  0.32734689    -0.55700
O26         O  0.36335460  0.11780283  0.34988510    -0.54900
O27         O  0.08027888  0.29290771  0.14812536    -0.56100
C28         C  0.11711789  0.31902764  0.06216832     0.76500
O29         O  0.04917761  0.34784469  0.09629164    -0.57300
C30         C  0.10536155  0.28627057  0.16593482     0.76500
C31         C  0.13913992  0.39038544  0.15534033     0.78900
Cd32       Cd  0.10396074  0.33925018  0.12509786     1.37500
O33         O  0.12477865  0.30179666  0.08523304    -0.56100
O34         O  0.15667327  0.36901649  0.14246945    -0.54900
C35         C  0.03043893  0.35062775  0.12052162     0.78800
O36         O  0.10673134  0.38956830  0.15115926    -0.57300
O37         O  0.11033674  0.34712321  0.06826791    -0.55800
O38         O  0.13141376  0.30404423  0.16499140    -0.55700
O39         O  0.04590327  0.35075481  0.14681000    -0.54900
O40         O  0.12403685  0.25394378  0.20903376    -0.56100
C41         C  0.10967160  0.17785605  0.28341997     0.76500
O42         O  0.02636132  0.21220050  0.22927622    -0.57300
C43         C  0.10294662  0.25929585  0.18651965     0.76500
C44         C  0.11531481  0.16473465  0.17938565     0.78900
Cd45       Cd  0.09022512  0.20783376  0.22553054     1.37500
O46         O  0.12352370  0.20357598  0.27581329    -0.56100
O47         O  0.13475196  0.18410278  0.19329891    -0.54900
C48         C  0.02677524  0.23709339  0.24544345     0.78800
O49         O  0.08325237  0.16503200  0.18657457    -0.57300
O50         O  0.08910765  0.16576243  0.26366484    -0.55800
O51         O  0.07808287  0.24054864  0.18251120    -0.55700
O52         O  0.05620750  0.24722448  0.25377225    -0.54900
O53         O  0.43635655  0.29134820  0.09913422    -0.56100
C54         C  0.40599302  0.32232009  0.18160568     0.76500
O55         O  0.47681840  0.34288424  0.09359793    -0.57300
C56         C  0.41242901  0.28740040  0.07925768     0.76500
C57         C  0.38258060  0.39119937  0.08702350     0.78900
Cd58       Cd  0.41852189  0.34122242  0.11784015     1.37500
O59         O  0.39561857  0.30577378  0.15892331    -0.56100
O60         O  0.36561445  0.37027598  0.10116063    -0.54900
C61         C  0.49247723  0.35094351  0.11848457     0.78800
O62         O  0.41515260  0.39061641  0.09011747    -0.57300
O63         O  0.41627738  0.34938898  0.17494840    -0.55800
O64         O  0.38968484  0.30839417  0.07718788    -0.55700
O65         O  0.47383359  0.35700959  0.14216747    -0.54900
O66         O  0.39193180  0.25580761  0.03641183    -0.56100
C67         C  0.40350516  0.18093374  0.46191343     0.76500
O68         O  0.48815957  0.21172289  0.01683825    -0.57300
C69         C  0.41288709  0.26003703  0.05926992     0.76500
C70         C  0.40014387  0.16469446  0.06513305     0.78900
Cd71       Cd  0.42412779  0.20893931  0.02009063     1.37500
O72         O  0.39059412  0.20694823  0.46981641    -0.56100
O73         O  0.38049977  0.18503653  0.05300891    -0.54900
C74         C  0.98860022  0.23685505  0.00109626     0.78800
O75         O  0.43176929  0.16461020  0.05657680    -0.57300
O76         O  0.42332945  0.16783980  0.48157278    -0.55800
O77         O  0.43619442  0.23992702  0.06394106    -0.55700
O78         O  0.45955043  0.24788802  0.49294703    -0.54900
O79         O  0.12576945  0.17901278  0.33789084    -0.56100
C80         C  0.10225925  0.19787891  0.41720591     0.76500
O81         O  0.04177324  0.13938830  0.40130282    -0.57300
C82         C  0.11358064  0.16395793  0.31484614     0.76500
C83         C  0.13548450  0.09320974  0.40915299     0.78900
Cd84       Cd  0.10034908  0.14376458  0.37829040     1.37500
O85         O  0.07824684  0.19177923  0.39805134    -0.56100
O86         O  0.15300072  0.11378617  0.39502803    -0.54900
C87         C  0.02668973  0.13381117  0.37543652     0.78800
O88         O  0.10297100  0.09444776  0.40595036    -0.57300
O89         O  0.12704723  0.17875867  0.41884343    -0.55800
O90         O  0.10111608  0.13748081  0.32087788    -0.55700
O91         O  0.04585472  0.12972159  0.35164180    -0.54900
O92         O  0.12153450  0.27948610  0.02243686    -0.56100
C93         C  0.09999385  0.22583247  0.43630932     0.76500
O94         O  0.02203435  0.27735393  0.47643416    -0.57300
C95         C  0.11098154  0.30618074  0.03066576     0.76500
C96         C  0.11084600  0.32245039  0.42670186     0.78900
Cd97       Cd  0.08664379  0.27886047  0.47295548     1.37500
O98         O  0.12003235  0.23154404  0.45943399    -0.56100
O99         O  0.13022288  0.30233391  0.43948290    -0.54900
C100        C  0.02126243  0.25246721  0.49254639     0.78800
O101        O  0.07907569  0.32253485  0.43481662    -0.57300
O102        O  0.07627813  0.24518744  0.43029760    -0.55800
O103        O  0.09130850  0.32030815  0.01162267    -0.55700
O104        O  0.05015998  0.24136529  0.00089461    -0.54900
O105        O  0.33211969  0.44886124  0.35277679    -0.56100
C106        C  0.36131513  0.41651987  0.43110416     0.76500
O107        O  0.28827215  0.39283032  0.34374818    -0.57300
C108        C  0.35232028  0.45078157  0.32948683     0.76500
C109        C  0.38401919  0.34753925  0.33698542     0.78900
Cd110      Cd  0.34658276  0.39676440  0.36786801     1.37500
O111        O  0.36819556  0.43374404  0.40787875    -0.56100
O112        O  0.40037096  0.36887527  0.35113527    -0.54900
C113        C  0.27268038  0.38557427  0.36888672     0.78800
O114        O  0.35143055  0.34736507  0.34014862    -0.57300
O115        O  0.35331791  0.38866653  0.42501610    -0.55800
O116        O  0.37121684  0.42755571  0.32368588    -0.55700
O117        O  0.29135087  0.38109821  0.39289509    -0.54900
O118        O  0.37084276  0.48148596  0.28544016    -0.56100
C119        C  0.36172470  0.05827386  0.21318199     0.76500
O120        O  0.27647203  0.02615495  0.26629762    -0.57300
C121        C  0.35177376  0.47830366  0.30976118     0.76500
C122        C  0.36579460  0.07368768  0.31523777     0.78900
Cd123      Cd  0.34041606  0.02943460  0.27073743     1.37500
O124        O  0.37539549  0.03270792  0.22152374    -0.56100
O125        O  0.38530798  0.05451241  0.30111701    -0.54900
C126        C  0.27653562  0.00100833  0.25054913     0.78800
O127        O  0.33347273  0.07241733  0.30924418    -0.57300
O128        O  0.34038684  0.07059348  0.23208502    -0.55800
O129        O  0.33033858  0.99960448  0.31612931    -0.55700
O130        O  0.30584713  0.99014810  0.24293594    -0.54900
O131        O  0.13950849  0.05685359  0.08535725    -0.56100
C132        C  0.16308850  0.03785599  0.16396828     0.76500
O133        O  0.22103772  0.10816555  0.10085156    -0.57300
C134        C  0.15210691  0.07136565  0.06217127     0.76500
C135        C  0.13049582  0.14201370  0.15753532     0.78900
Cd136      Cd  0.16567714  0.09199718  0.12535305     1.37500
O137        O  0.18505593  0.04200384  0.14237469    -0.56100
O138        O  0.11309426  0.12025135  0.14523377    -0.54900
C139        C  0.23976378  0.10162071  0.12437202     0.78800
O140        O  0.16259858  0.14237059  0.15162158    -0.57300
O141        O  0.14059292  0.05881625  0.16790840    -0.55800
O142        O  0.16463611  0.09791131  0.06778867    -0.55700
O143        O  0.22412844  0.09329662  0.14917323    -0.54900
O144        O  0.14470656  0.45654328  0.27081872    -0.56100
C145        C  0.16539098  0.51025123  0.18356184     0.76500
O146        O  0.24385579  0.46066384  0.22470400    -0.57300
C147        C  0.15506735  0.42957975  0.27838852     0.76500
C148        C  0.15452144  0.41399340  0.17602575     0.78900
Cd149      Cd  0.17921657  0.45809229  0.22123193     1.37500
O150        O  0.14599966  0.50537041  0.20733756    -0.56100
O151        O  0.13512763  0.43383096  0.18925293    -0.54900
C152        C  0.24414997  0.48514987  0.24146437     0.78800
O153        O  0.18662498  0.41461304  0.18302103    -0.57300
O154        O  0.18860814  0.49046019  0.17742996    -0.55800
O155        O  0.17443842  0.41570962  0.25888406    -0.55700
O156        O  0.21501542  0.49556251  0.25008901    -0.54900
O157        O  0.37636664  0.05532009  0.15866574    -0.56100
C158        C  0.35287869  0.03711906  0.07897897     0.76500
O159        O  0.29329582  0.10015824  0.09608193    -0.57300
C160        C  0.36641221  0.07161730  0.18168985     0.76500
C161        C  0.38568271  0.14140508  0.08660524     0.78900
Cd162      Cd  0.35164396  0.09083055  0.11850815     1.37500
O163        O  0.32704269  0.04508238  0.09528585    -0.56100
O164        O  0.40329249  0.11891314  0.09709827    -0.54900
C165        C  0.27777153  0.10121795  0.12233773     0.78800
O166        O  0.35400064  0.14204823  0.09404981    -0.57300
O167        O  0.37958621  0.05402760  0.08067806    -0.55800
O168        O  0.35617098  0.09882591  0.17553002    -0.55700
O169        O  0.29651377  0.09967204  0.14670637    -0.54900
O170        O  0.36971256  0.45578541  0.47059727    -0.56100
C171        C  0.35073096  0.50951565  0.05935960     0.76500
O172        O  0.27414574  0.45865677  0.02039564    -0.57300
C173        C  0.35803131  0.42922234  0.46304121     0.76500
C174        C  0.36613065  0.41405949  0.06631693     0.78900
Cd175      Cd  0.33855483  0.45692856  0.02184512     1.37500
O176        O  0.37201914  0.50354512  0.03720564    -0.56100
O177        O  0.38455453  0.43430273  0.05258744    -0.54900
C178        C  0.27325016  0.48269298  0.00296184     0.78800
O179        O  0.33388160  0.41360260  0.05991052    -0.57300
O180        O  0.32598557  0.49078331  0.06386831    -0.55800
O181        O  0.33991973  0.41515423  0.48338681    -0.55700
O182        O  0.30200276  0.49324631  0.49343175    -0.54900
O183        O  0.18400366  0.44310493  0.39412580    -0.57700
C184        C  0.14902460  0.41615768  0.30971339     0.76500
O185        O  0.21602650  0.38240299  0.34642310    -0.57300
C186        C  0.15962981  0.44911866  0.41295549     0.76500
C187        C  0.12593139  0.34551735  0.40516281     0.78900
Cd188      Cd  0.16103622  0.39577244  0.37308354     1.37500
O189        O  0.13952225  0.43267709  0.33274562    -0.56100
O190        O  0.10832943  0.36682296  0.39225835    -0.54900
C191        C  0.23471804  0.38517116  0.37071678     0.78800
O192        O  0.15819589  0.34585584  0.40009299    -0.57300
O193        O  0.15737755  0.38840235  0.31576985    -0.55800
O194        O  0.13400219  0.43082636  0.41303092    -0.55700
O195        O  0.21913829  0.38999269  0.39647674    -0.54900
O196        O  0.14301720  0.47979297  0.45776491    -0.56100
C197        C  0.15654491  0.05668931  0.03119698     0.76500
O198        O  0.24029310  0.02219207  0.47684046    -0.57300
C199        C  0.16253880  0.47572871  0.43387737     0.76500
C200        C  0.15110968  0.06993450  0.42993913     0.78900
Cd201      Cd  0.17658230  0.02589360  0.47415067     1.37500
O202        O  0.14286106  0.03074795  0.02406838    -0.56100
O203        O  0.13179863  0.05050878  0.44390013    -0.54900
C204        C  0.24060565  0.99800649  0.49402350     0.78800
O205        O  0.18341935  0.06913870  0.43612685    -0.57300
O206        O  0.17748239  0.06831408  0.01148666    -0.55800
O207        O  0.18650345  0.99520258  0.42903770    -0.55700
O208        O  0.21153383  0.98767512  0.00310906    -0.54900
O209        O  0.39679076  0.28407592  0.72196435    -0.56100
C210        C  0.41729003  0.22976607  0.80964163     0.76500
O211        O  0.49456551  0.27842866  0.77020248    -0.57300
C212        C  0.41041078  0.30956808  0.71337740     0.76500
C213        C  0.40114194  0.32493029  0.81629048     0.78900
Cd214      Cd  0.43002957  0.28193994  0.77210807     1.37500
O215        O  0.39748321  0.23479996  0.78615138    -0.56100
O216        O  0.38327873  0.30434485  0.80247647    -0.54900
C217        C  0.49461468  0.25355505  0.75396652     0.78800
O218        O  0.43343796  0.32583243  0.81006804    -0.57300
O219        O  0.44063306  0.24952535  0.81570854    -0.55800
O220        O  0.43110637  0.32246162  0.73248532    -0.55700
O221        O  0.46543381  0.24331796  0.74515780    -0.54900
O222        O  0.43912103  0.19572180  0.84803743    -0.56100
C223        C  0.39978607  0.16771001  0.93028360     0.76500
O224        O  0.41354036  0.09857557  0.83956094    -0.57300
C225        C  0.41506247  0.20197929  0.82894734     0.76500
C226        C  0.48883350  0.13500576  0.87261194     0.78900
Cd227      Cd  0.41568782  0.14774449  0.86761353     1.37500
O228        O  0.39041723  0.18394383  0.90700498    -0.56100
O229        O  0.47424470  0.13856650  0.84616312    -0.54900
C230        C  0.38108997  0.09719457  0.83603136     0.78800
O231        O  0.46938371  0.13505167  0.89656960    -0.57300
O232        O  0.41025757  0.14050207  0.92443336    -0.55800
O233        O  0.39011147  0.18304220  0.82735594    -0.55700
O234        O  0.36334110  0.11781185  0.84987426    -0.54900
O235        O  0.08028356  0.29288851  0.64811083    -0.56100
C236        C  0.11711225  0.31901979  0.56217756     0.76500
O237        O  0.04917701  0.34790279  0.59630733    -0.57300
C238        C  0.10535400  0.28626730  0.66594085     0.76500
C239        C  0.13913676  0.39037907  0.65534649     0.78900
Cd240      Cd  0.10395315  0.33924791  0.62510645     1.37500
O241        O  0.12476036  0.30178644  0.58524371    -0.56100
O242        O  0.15666908  0.36901113  0.64247271    -0.54900
C243        C  0.03043524  0.35063744  0.62054116     0.78800
O244        O  0.10672746  0.38956124  0.65117051    -0.57300
O245        O  0.11033873  0.34711691  0.56827632    -0.55800
O246        O  0.13139370  0.30405689  0.66501831    -0.55700
O247        O  0.04589562  0.35071349  0.64683147    -0.54900
O248        O  0.12401975  0.25395075  0.70905069    -0.56100
C249        C  0.10966609  0.17785075  0.78342586     0.76500
O250        O  0.02635768  0.21220621  0.72927988    -0.57300
C251        C  0.10293983  0.25929303  0.68652626     0.76500
C252        C  0.11530259  0.16473405  0.67938690     0.78900
Cd253      Cd  0.09021961  0.20783204  0.72553683     1.37500
O254        O  0.12352913  0.20356477  0.77581483    -0.56100
O255        O  0.13474217  0.18409984  0.69330090    -0.54900
C256        C  0.02677465  0.23710065  0.74544446     0.78800
O257        O  0.08324104  0.16503177  0.68657896    -0.57300
O258        O  0.08908973  0.16576537  0.76367610    -0.55800
O259        O  0.07808717  0.24053610  0.68250730    -0.55700
O260        O  0.05620778  0.24722897  0.75377393    -0.54900
O261        O  0.43633107  0.29133273  0.59914976    -0.56100
C262        C  0.40600953  0.32231848  0.68160066     0.76500
O263        O  0.47683034  0.34282728  0.59358846    -0.57300
C264        C  0.41242624  0.28740761  0.57924593     0.76500
C265        C  0.38258321  0.39120376  0.58702047     0.78900
Cd266      Cd  0.41853339  0.34122639  0.61783188     1.37500
O267        O  0.39562186  0.30577950  0.65891794    -0.56100
O268        O  0.36562130  0.37027299  0.60115048    -0.54900
C269        C  0.49249192  0.35093869  0.61845606     0.78800
O270        O  0.41515508  0.39062786  0.59011894    -0.57300
O271        O  0.41630847  0.34938280  0.67494382    -0.55800
O272        O  0.38971150  0.30842433  0.57714845    -0.55700
O273        O  0.47385002  0.35706089  0.64212528    -0.54900
O274        O  0.39193853  0.25582523  0.53638766    -0.56100
C275        C  0.40350530  0.18094018  0.96191710     0.76500
O276        O  0.48815142  0.21172247  0.51683769    -0.57300
C277        C  0.41287889  0.26004321  0.55925910     0.76500
C278        C  0.40012835  0.16469586  0.56512786     0.78900
Cd279      Cd  0.42411826  0.20893970  0.52008551     1.37500
O280        O  0.39061179  0.20696264  0.96981628    -0.56100
O281        O  0.38048169  0.18502819  0.55298989    -0.54900
C282        C  0.98860508  0.23686073  0.50110637     0.78800
O283        O  0.43175785  0.16461992  0.55658420    -0.57300
O284        O  0.42331701  0.16783668  0.98158022    -0.55800
O285        O  0.43616747  0.23991946  0.56394583    -0.55700
O286        O  0.45955577  0.24789396  0.99295841    -0.54900
O287        O  0.12577274  0.17900222  0.83789548    -0.56100
C288        C  0.10226258  0.19786759  0.91721407     0.76500
O289        O  0.04177385  0.13939839  0.90130514    -0.57300
C290        C  0.11357878  0.16395028  0.81485103     0.76500
C291        C  0.13548903  0.09320084  0.90916195     0.78900
Cd292      Cd  0.10035268  0.14375355  0.87829685     1.37500
O293        O  0.07825476  0.19177080  0.89805368    -0.56100
O294        O  0.15300478  0.11378069  0.89504156    -0.54900
C295        C  0.02669326  0.13380410  0.87544118     0.78800
O296        O  0.10297596  0.09443431  0.90595337    -0.57300
O297        O  0.12704625  0.17874352  0.91885840    -0.55800
O298        O  0.10111287  0.13747373  0.82088266    -0.55700
O299        O  0.04586107  0.12969289  0.85165222    -0.54900
O300        O  0.12152511  0.27947731  0.52244662    -0.56100
C301        C  0.09999650  0.22582326  0.93631466     0.76500
O302        O  0.02203216  0.27734844  0.97642643    -0.57300
C303        C  0.11098196  0.30617597  0.53067276     0.76500
C304        C  0.11084674  0.32244687  0.92669795     0.78900
Cd305      Cd  0.08664248  0.27885713  0.97295208     1.37500
O306        O  0.12002999  0.23153525  0.95944291    -0.56100
O307        O  0.13022371  0.30233240  0.93948224    -0.54900
C308        C  0.02125875  0.25246134  0.99253781     0.78800
O309        O  0.07907514  0.32252814  0.93480807    -0.57300
O310        O  0.07628548  0.24518048  0.93029573    -0.55800
O311        O  0.09132329  0.32031146  0.51162383    -0.55700
O312        O  0.05016403  0.24137111  0.50090157    -0.54900
O313        O  0.33212497  0.44885550  0.85276991    -0.56100
C314        C  0.36131606  0.41651331  0.93110219     0.76500
O315        O  0.28827535  0.39281469  0.84373919    -0.57300
C316        C  0.35232518  0.45077510  0.82947966     0.76500
C317        C  0.38401968  0.34753126  0.83698572     0.78900
Cd318      Cd  0.34658520  0.39675976  0.86786436     1.37500
O319        O  0.36819762  0.43373746  0.90787704    -0.56100
O320        O  0.40037204  0.36887258  0.85112670    -0.54900
C321        C  0.27268122  0.38557416  0.86888136     0.78800
O322        O  0.35143203  0.34735278  0.84015779    -0.57300
O323        O  0.35331730  0.38866045  0.92501360    -0.55800
O324        O  0.37122168  0.42754908  0.82367957    -0.55700
O325        O  0.29134978  0.38111179  0.89289329    -0.54900
O326        O  0.37084750  0.48148266  0.78543396    -0.56100
C327        C  0.36172038  0.05827971  0.71318532     0.76500
O328        O  0.27646559  0.02615550  0.76629659    -0.57300
C329        C  0.35177736  0.47829719  0.80975396     0.76500
C330        C  0.36578286  0.07368382  0.81524452     0.78900
Cd331      Cd  0.34041010  0.02943490  0.77073713     1.37500
O332        O  0.37539200  0.03271333  0.72152484    -0.56100
O333        O  0.38529761  0.05450674  0.80112787    -0.54900
C334        C  0.27652929  0.00100942  0.75054741     0.78800
O335        O  0.33346249  0.07241672  0.80924379    -0.57300
O336        O  0.34038200  0.07059697  0.73208920    -0.55800
O337        O  0.33033323  0.99960121  0.81612475    -0.55700
O338        O  0.30584094  0.99014883  0.74293518    -0.54900
O339        O  0.13947849  0.05687456  0.58534341    -0.56100
C340        C  0.16306882  0.03785283  0.66395337     0.76500
O341        O  0.22102810  0.10817380  0.60085651    -0.57300
C342        C  0.15209128  0.07138298  0.56216121     0.76500
C343        C  0.13048040  0.14201529  0.65753222     0.78900
Cd344      Cd  0.16566188  0.09200127  0.62534655     1.37500
O345        O  0.18500555  0.04198141  0.64233012    -0.56100
O346        O  0.11307783  0.12025314  0.64523101    -0.54900
C347        C  0.23975101  0.10161970  0.62437622     0.78800
O348        O  0.16258228  0.14237382  0.65161453    -0.57300
O349        O  0.14060479  0.05883413  0.66792499    -0.55800
O350        O  0.16463083  0.09792372  0.56778297    -0.55700
O351        O  0.22411198  0.09328647  0.64917219    -0.54900
O352        O  0.14469792  0.45653663  0.77081039    -0.56100
C353        C  0.16537473  0.51024643  0.68355149     0.76500
O354        O  0.24385439  0.46066503  0.72469511    -0.57300
C355        C  0.15506455  0.42957497  0.77838072     0.76500
C356        C  0.15451955  0.41398773  0.67602912     0.78900
Cd357      Cd  0.17921410  0.45809189  0.72122652     1.37500
O358        O  0.14600151  0.50537546  0.70734128    -0.56100
O359        O  0.13512501  0.43382234  0.68925977    -0.54900
C360        C  0.24414883  0.48514935  0.74145780     0.78800
O361        O  0.18662484  0.41461182  0.68301768    -0.57300
O362        O  0.18857900  0.49044702  0.67740736    -0.55800
O363        O  0.17444181  0.41570929  0.75887815    -0.55700
O364        O  0.21501431  0.49556111  0.75008339    -0.54900
O365        O  0.37636242  0.05532968  0.65866941    -0.56100
C366        C  0.35286091  0.03712335  0.57898546     0.76500
O367        O  0.29328745  0.10018938  0.59609106    -0.57300
C368        C  0.36640640  0.07162533  0.68169406     0.76500
C369        C  0.38566715  0.14140841  0.58660274     0.78900
Cd370      Cd  0.35163204  0.09083521  0.61851312     1.37500
O371        O  0.32701902  0.04509772  0.59527867    -0.56100
O372        O  0.40327986  0.11892287  0.59710607    -0.54900
C373        C  0.27775905  0.10121819  0.62234611     0.78800
O374        O  0.35398320  0.14204710  0.59404077    -0.57300
O375        O  0.37957661  0.05402009  0.58069862    -0.55800
O376        O  0.35616078  0.09883318  0.67553525    -0.55700
O377        O  0.29649756  0.09964319  0.64671525    -0.54900
O378        O  0.36972083  0.45577709  0.97059553    -0.56100
C379        C  0.35071532  0.50951685  0.55936126     0.76500
O380        O  0.27413280  0.45866230  0.52039823    -0.57300
C381        C  0.35803459  0.42921582  0.96303961     0.76500
C382        C  0.36612848  0.41406378  0.56631621     0.78900
Cd383      Cd  0.33854337  0.45693110  0.52184576     1.37500
O384        O  0.37201083  0.50354117  0.53721452    -0.56100
O385        O  0.38454697  0.43431507  0.55259306    -0.54900
C386        C  0.27323773  0.48269597  0.50296089     0.78800
O387        O  0.33388058  0.41359875  0.55990514    -0.57300
O388        O  0.32596215  0.49079085  0.56386179    -0.55800
O389        O  0.33992133  0.41515015  0.98338577    -0.55700
O390        O  0.30201475  0.49324734  0.99343699    -0.54900
O391        O  0.18398913  0.44312037  0.89409494    -0.57700
C392        C  0.14902144  0.41615070  0.80970465     0.76500
O393        O  0.21602605  0.38238423  0.84642040    -0.57300
C394        C  0.15962952  0.44912051  0.91294435     0.76500
C395        C  0.12593324  0.34551479  0.90516018     0.78900
Cd396      Cd  0.16103548  0.39577041  0.87307597     1.37500
O397        O  0.13950749  0.43266641  0.83273572    -0.56100
O398        O  0.10832947  0.36681366  0.89224585    -0.54900
C399        C  0.23471865  0.38517269  0.87071096     0.78800
O400        O  0.15819947  0.34586063  0.90010035    -0.57300
O401        O  0.15738584  0.38839834  0.81576199    -0.55800
O402        O  0.13401351  0.43081534  0.91303798    -0.55700
O403        O  0.21913967  0.39001377  0.89646753    -0.54900
O404        O  0.14303152  0.47978379  0.95776589    -0.56100
C405        C  0.15653478  0.05670511  0.53118818     0.76500
O406        O  0.24029882  0.02218492  0.97684653    -0.57300
C407        C  0.16254319  0.47572749  0.93387029     0.76500
C408        C  0.15111427  0.06992658  0.92994901     0.78900
Cd409      Cd  0.17658834  0.02588311  0.97415597     1.37500
O410        O  0.14284232  0.03076872  0.52405506    -0.56100
O411        O  0.13180332  0.05050031  0.94390968    -0.54900
C412        C  0.24061339  0.99799677  0.99402566     0.78800
O413        O  0.18342395  0.06913165  0.93613712    -0.57300
O414        O  0.17748594  0.06832212  0.51148478    -0.55800
O415        O  0.18649870  0.99520565  0.92902988    -0.55700
O416        O  0.21152529  0.98768931  0.50311027    -0.54900
O417        O  0.39678988  0.78407964  0.22196887    -0.56100
C418        C  0.41729230  0.72977660  0.30964391     0.76500
O419        O  0.49456664  0.77843853  0.27019800    -0.57300
C420        C  0.41040125  0.80957535  0.21338184     0.76500
C421        C  0.40114354  0.82493963  0.31629195     0.78900
Cd422      Cd  0.43003096  0.78194996  0.27210980     1.37500
O423        O  0.39748567  0.73480998  0.28615348    -0.56100
O424        O  0.38327972  0.80435862  0.30247194    -0.54900
C425        C  0.49461363  0.75356399  0.25396342     0.78800
O426        O  0.43344139  0.82583775  0.31007607    -0.57300
O427        O  0.44063408  0.74953682  0.31571146    -0.55800
O428        O  0.43109363  0.82247421  0.23248892    -0.55700
O429        O  0.46543196  0.74332814  0.24515575    -0.54900
O430        O  0.43912032  0.69573649  0.34804504    -0.56100
C431        C  0.39978932  0.66770335  0.43027738     0.76500
O432        O  0.41355768  0.59859383  0.33952833    -0.57300
C433        C  0.41506658  0.70198893  0.32894821     0.76500
C434        C  0.48884382  0.63500576  0.37261067     0.78900
Cd435      Cd  0.41569877  0.64774841  0.36760594     1.37500
O436        O  0.39040931  0.68393465  0.40700054    -0.56100
O437        O  0.47425778  0.63856692  0.34616073    -0.54900
C438        C  0.38110531  0.59719905  0.33601985     0.78800
O439        O  0.46939191  0.63505557  0.39656689    -0.57300
O440        O  0.41027614  0.64050067  0.42442456    -0.55800
O441        O  0.39012307  0.68304485  0.32734733    -0.55700
O442        O  0.36335544  0.61780239  0.34988326    -0.54900
O443        O  0.08027129  0.79291400  0.14813071    -0.56100
C444        C  0.11712047  0.81902824  0.06216694     0.76500
O445        O  0.04917826  0.84783205  0.09628535    -0.57300
C446        C  0.10535611  0.78627274  0.16593607     0.76500
C447        C  0.13914113  0.89038586  0.15533819     0.78900
Cd448      Cd  0.10396099  0.83925078  0.12509575     1.37500
O449        O  0.12477906  0.80179696  0.08523190    -0.56100
O450        O  0.15667390  0.86901444  0.14247104    -0.54900
C451        C  0.03044047  0.85063009  0.12051398     0.78800
O452        O  0.10673308  0.88957160  0.15115277    -0.57300
O453        O  0.11034126  0.84712439  0.06826607    -0.55800
O454        O  0.13141190  0.80404191  0.16498783    -0.55700
O455        O  0.04590541  0.85077146  0.14680207    -0.54900
O456        O  0.12403357  0.75394339  0.20903231    -0.56100
C457        C  0.10966758  0.67785555  0.28342033     0.76500
O458        O  0.02635864  0.71220196  0.22927548    -0.57300
C459        C  0.10294068  0.75929785  0.18652083     0.76500
C460        C  0.11531160  0.66473480  0.17938512     0.78900
Cd461      Cd  0.09022190  0.70783380  0.22553057     1.37500
O462        O  0.12352196  0.70357423  0.27581273    -0.56100
O463        O  0.13474806  0.68410468  0.19329676    -0.54900
C464        C  0.02677338  0.73709385  0.24544453     0.78800
O465        O  0.08324969  0.66503033  0.18657575    -0.57300
O466        O  0.08910146  0.66576339  0.26366610    -0.55800
O467        O  0.07807481  0.74055241  0.18251447    -0.55700
O468        O  0.05620570  0.74722320  0.25377499    -0.54900
O469        O  0.43634911  0.79134543  0.09914143    -0.56100
C470        C  0.40599591  0.82232295  0.18160490     0.76500
O471        O  0.47681933  0.84287642  0.09359429    -0.57300
C472        C  0.41242734  0.78740266  0.07925809     0.76500
C473        C  0.38258184  0.89120080  0.08702137     0.78900
Cd474      Cd  0.41852367  0.84122523  0.11783858     1.37500
O475        O  0.39562093  0.80577711  0.15892253    -0.56100
O476        O  0.36561587  0.87027771  0.10115921    -0.54900
C477        C  0.49247897  0.85094592  0.11847695     0.78800
O478        O  0.41515390  0.89061819  0.09011507    -0.57300
O479        O  0.41628122  0.84939159  0.17494763    -0.55800
O480        O  0.38969027  0.80840187  0.07718066    -0.55700
O481        O  0.47383616  0.85702222  0.14215776    -0.54900
O482        O  0.39193368  0.75581215  0.03640920    -0.56100
C483        C  0.40350421  0.68093266  0.46191173     0.76500
O484        O  0.48815996  0.71172506  0.01684128    -0.57300
C485        C  0.41288498  0.76003906  0.05927076     0.76500
C486        C  0.40014221  0.66469667  0.06513356     0.78900
Cd487      Cd  0.42412791  0.70894148  0.02009205     1.37500
O488        O  0.39059467  0.70694770  0.46981477    -0.56100
O489        O  0.38049817  0.68503793  0.05300791    -0.54900
C490        C  0.98859987  0.73685739  0.00109862     0.78800
O491        O  0.43176825  0.66461321  0.05657917    -0.57300
O492        O  0.42332761  0.66783775  0.48157117    -0.55800
O493        O  0.43618854  0.73992643  0.06394562    -0.55700
O494        O  0.45954930  0.74788755  0.49294629    -0.54900
O495        O  0.12576793  0.67901167  0.33789072    -0.56100
C496        C  0.10226043  0.69788011  0.41720657     0.76500
O497        O  0.04177089  0.63939832  0.40130355    -0.57300
C498        C  0.11357688  0.66395741  0.31484656     0.76500
C499        C  0.13548235  0.59321032  0.40915636     0.78900
Cd500      Cd  0.10034766  0.64376490  0.37829203     1.37500
O501        O  0.07824982  0.69178256  0.39804928    -0.56100
O502        O  0.15299877  0.61378480  0.39502855    -0.54900
C503        C  0.02668816  0.63381245  0.37543871     0.78800
O504        O  0.10296864  0.59445015  0.40595620    -0.57300
O505        O  0.12704585  0.67875755  0.41884691    -0.55800
O506        O  0.10111080  0.63748107  0.32087909    -0.55700
O507        O  0.04585394  0.62971341  0.35164629    -0.54900
O508        O  0.12153517  0.77948601  0.02243610    -0.56100
C509        C  0.09999504  0.72583373  0.43630998     0.76500
O510        O  0.02203417  0.77735394  0.47643374    -0.57300
C511        C  0.11098332  0.80618122  0.03066456     0.76500
C512        C  0.11084571  0.82245062  0.42670184     0.78900
Cd513      Cd  0.08664367  0.77886142  0.47295616     1.37500
O514        O  0.12003268  0.73154477  0.45943556    -0.56100
O515        O  0.13022225  0.80233377  0.43948274    -0.54900
C516        C  0.02126243  0.75246635  0.49254446     0.78800
O517        O  0.07907564  0.82253609  0.43481733    -0.57300
O518        O  0.07628010  0.74518914  0.43029759    -0.55800
O519        O  0.09131044  0.82030875  0.01162159    -0.55700
O520        O  0.05015966  0.74136684  0.00089642    -0.54900
O521        O  0.33212418  0.94886152  0.35277680    -0.56100
C522        C  0.36131581  0.91652255  0.43110679     0.76500
O523        O  0.28827487  0.89283823  0.34375178    -0.57300
C524        C  0.35232486  0.95078117  0.32948681     0.76500
C525        C  0.38402008  0.84754003  0.33698679     0.78900
Cd526      Cd  0.34658600  0.89676565  0.36787031     1.37500
O527        O  0.36819880  0.93374591  0.40788141    -0.56100
O528        O  0.40037277  0.86887360  0.35113945    -0.54900
C529        C  0.27268374  0.88557455  0.36888846     0.78800
O530        O  0.35143107  0.84736831  0.34014751    -0.57300
O531        O  0.35331711  0.88866955  0.42501883    -0.55800
O532        O  0.37122206  0.92755539  0.32368708    -0.55700
O533        O  0.29135479  0.88109208  0.39289515    -0.54900
O534        O  0.37084651  0.98148540  0.28543929    -0.56100
C535        C  0.36172214  0.55827265  0.21318095     0.76500
O536        O  0.27647005  0.52615705  0.26629600    -0.57300
C537        C  0.35177746  0.97830263  0.30976026     0.76500
C538        C  0.36579530  0.57368750  0.31523594     0.78900
Cd539      Cd  0.34041393  0.52943466  0.27073722     1.37500
O540        O  0.37539059  0.53270541  0.22152166    -0.56100
O541        O  0.38530827  0.55451258  0.30111409    -0.54900
C542        C  0.27653327  0.50100864  0.25055049     0.78800
O543        O  0.33347309  0.57241676  0.30924395    -0.57300
O544        O  0.34038632  0.57059363  0.23208504    -0.55800
O545        O  0.33033581  0.49960620  0.31613069    -0.55700
O546        O  0.30584466  0.49014627  0.24293985    -0.54900
O547        O  0.13951043  0.55685535  0.08535478    -0.56100
C548        C  0.16308894  0.53785681  0.16396636     0.76500
O549        O  0.22103729  0.60816753  0.10085161    -0.57300
C550        C  0.15210964  0.57136768  0.06216914     0.76500
C551        C  0.13049333  0.64201427  0.15753459     0.78900
Cd552      Cd  0.16567701  0.59199885  0.12535203     1.37500
O553        O  0.18505731  0.54200528  0.14237363    -0.56100
O554        O  0.11309317  0.62024933  0.14523603    -0.54900
C555        C  0.23976285  0.60162442  0.12437274     0.78800
O556        O  0.16259527  0.64237415  0.15161763    -0.57300
O557        O  0.14059277  0.55881663  0.16790582    -0.55800
O558        O  0.16463808  0.59791333  0.06778712    -0.55700
O559        O  0.22412725  0.59330113  0.14917419    -0.54900
O560        O  0.14470955  0.95654174  0.27081983    -0.56100
C561        C  0.16539111  0.01025043  0.18356359     0.76500
O562        O  0.24385801  0.96066407  0.22470137    -0.57300
C563        C  0.15507029  0.92957819  0.27838937     0.76500
C564        C  0.15452240  0.91399319  0.17602466     0.78900
Cd565      Cd  0.17921808  0.95809098  0.22123218     1.37500
O566        O  0.14599970  0.00536874  0.20733906    -0.56100
O567        O  0.13512879  0.93383087  0.18925178    -0.54900
C568        C  0.24415226  0.98514925  0.24146310     0.78800
O569        O  0.18662574  0.91461194  0.18302088    -0.57300
O570        O  0.18860899  0.99046008  0.17743157    -0.55800
O571        O  0.17444090  0.91570802  0.25888449    -0.55700
O572        O  0.21501784  0.99556055  0.25008949    -0.54900
O573        O  0.37636261  0.55531953  0.15866442    -0.56100
C574        C  0.35287699  0.53712079  0.07898024     0.76500
O575        O  0.29329441  0.60015922  0.09608301    -0.57300
C576        C  0.36641005  0.57161677  0.18168923     0.76500
C577        C  0.38568047  0.64140732  0.08660549     0.78900
Cd578      Cd  0.35164206  0.59083273  0.11850863     1.37500
O579        O  0.32704202  0.54508269  0.09528909    -0.56100
O580        O  0.40329115  0.61891786  0.09710287    -0.54900
C581        C  0.27777045  0.60122187  0.12233888     0.78800
O582        O  0.35399713  0.64204819  0.09404571    -0.57300
O583        O  0.37958327  0.55403131  0.08067661    -0.55800
O584        O  0.35617133  0.59882639  0.17553048    -0.55700
O585        O  0.29651279  0.59967860  0.14670755    -0.54900
O586        O  0.36971501  0.95578703  0.47060100    -0.56100
C587        C  0.35073214  0.00951439  0.05935772     0.76500
O588        O  0.27414511  0.95865551  0.02039523    -0.57300
C589        C  0.35803087  0.92922528  0.46304369     0.76500
C590        C  0.36613163  0.91406023  0.06631433     0.78900
Cd591      Cd  0.33855491  0.95692837  0.02184232     1.37500
O592        O  0.37202050  0.00354382  0.03720382    -0.56100
O593        O  0.38455510  0.93430393  0.05258508    -0.54900
C594        C  0.27324809  0.98269173  0.00296163     0.78800
O595        O  0.33388277  0.91360224  0.05990724    -0.57300
O596        O  0.32598614  0.99078267  0.06386569    -0.55800
O597        O  0.33991588  0.91515866  0.48338780    -0.55700
O598        O  0.30200406  0.99324959  0.49343268    -0.54900
O599        O  0.18400448  0.94310499  0.39412391    -0.57700
C600        C  0.14902774  0.91615593  0.30971430     0.76500
O601        O  0.21603048  0.88240564  0.34642372    -0.57300
C602        C  0.15963257  0.94911672  0.41295634     0.76500
C603        C  0.12593169  0.84551678  0.40516235     0.78900
Cd604      Cd  0.16103925  0.89577051  0.37308426     1.37500
O605        O  0.13952625  0.93267556  0.33274672    -0.56100
O606        O  0.10833060  0.86682320  0.39225817    -0.54900
C607        C  0.23472137  0.88516980  0.37071811     0.78800
O608        O  0.15819612  0.84585376  0.40009203    -0.57300
O609        O  0.15737958  0.88840030  0.31577051    -0.55800
O610        O  0.13400716  0.93082208  0.41303491    -0.55700
O611        O  0.21914083  0.88998613  0.39647880    -0.54900
O612        O  0.14302039  0.97979174  0.45776540    -0.56100
C613        C  0.15654862  0.55669116  0.03119500     0.76500
O614        O  0.24029162  0.52218988  0.47684273    -0.57300
C615        C  0.16254136  0.97572738  0.43387743     0.76500
C616        C  0.15110778  0.56993505  0.42994246     0.78900
Cd617      Cd  0.17658072  0.52589274  0.47415300     1.37500
O618        O  0.14286490  0.53075001  0.02406606    -0.56100
O619        O  0.13179697  0.55050874  0.44390293    -0.54900
C620        C  0.24060435  0.49800365  0.49402466     0.78800
O621        O  0.18341739  0.56913957  0.43613055    -0.57300
O622        O  0.17748686  0.56831589  0.01148506    -0.55800
O623        O  0.18650202  0.49520320  0.42903897    -0.55700
O624        O  0.21153642  0.48767712  0.00310770    -0.54900
O625        O  0.39678937  0.78407347  0.72196385    -0.56100
C626        C  0.41728993  0.72976608  0.80964347     0.76500
O627        O  0.49456582  0.77842856  0.77020002    -0.57300
C628        C  0.41040997  0.80956510  0.71337585     0.76500
C629        C  0.40114102  0.82493221  0.81628688     0.78900
Cd630      Cd  0.43002969  0.78193885  0.77210736     1.37500
O631        O  0.39748422  0.73479864  0.78615217    -0.56100
O632        O  0.38327794  0.80434661  0.80247273    -0.54900
C633        C  0.49461515  0.75355362  0.75396598     0.78800
O634        O  0.43343725  0.82583340  0.81006573    -0.57300
O635        O  0.44063165  0.74952653  0.81571081    -0.55800
O636        O  0.43110704  0.82245826  0.73248267    -0.55700
O637        O  0.46543432  0.74331509  0.74515923    -0.54900
O638        O  0.43912160  0.69572194  0.84803946    -0.56100
C639        C  0.39978821  0.66771132  0.93028539     0.76500
O640        O  0.41354002  0.59857604  0.83956206    -0.57300
C641        C  0.41506282  0.70197934  0.82894949     0.76500
C642        C  0.48883380  0.63500352  0.87261190     0.78900
Cd643      Cd  0.41568845  0.64774409  0.86761541     1.37500
O644        O  0.39042046  0.68394520  0.90700650    -0.56100
O645        O  0.47424498  0.63856967  0.84616397    -0.54900
C646        C  0.38108963  0.59719449  0.83603276     0.78800
O647        O  0.46938409  0.63504443  0.89656974    -0.57300
O648        O  0.41025853  0.64050294  0.92443563    -0.55800
O649        O  0.39011201  0.68304196  0.82735822    -0.55700
O650        O  0.36334060  0.61781140  0.84987610    -0.54900
O651        O  0.08028639  0.79288601  0.64810917    -0.56100
C652        C  0.11710929  0.81901965  0.56217960     0.76500
O653        O  0.04917569  0.84791345  0.59631191    -0.57300
C654        C  0.10535592  0.78626690  0.66594119     0.76500
C655        C  0.13913593  0.89037942  0.65534829     0.78900
Cd656      Cd  0.10395151  0.83924846  0.62510877     1.37500
O657        O  0.12475688  0.80178617  0.58524573    -0.56100
O658        O  0.15666817  0.86901275  0.64247229    -0.54900
C659        C  0.03043303  0.85063788  0.62054635     0.78800
O660        O  0.10672623  0.88956016  0.65117521    -0.57300
O661        O  0.11033600  0.84711679  0.56827843    -0.55800
O662        O  0.13139353  0.80405899  0.66502126    -0.55700
O663        O  0.04589267  0.85070407  0.64683711    -0.54900
O664        O  0.12402037  0.75395165  0.70905239    -0.56100
C665        C  0.10966730  0.67785137  0.78342613     0.76500
O666        O  0.02635878  0.71220412  0.72928132    -0.57300
C667        C  0.10294213  0.75929234  0.68652618     0.76500
C668        C  0.11530614  0.66473420  0.67938853     0.78900
Cd669      Cd  0.09022109  0.70783215  0.72553725     1.37500
O670        O  0.12352855  0.70356634  0.77581588    -0.56100
O671        O  0.13474586  0.68409868  0.69330440    -0.54900
C672        C  0.02677506  0.73709983  0.74544409     0.78800
O673        O  0.08324399  0.66503357  0.68657806    -0.57300
O674        O  0.08909270  0.66576477  0.76367559    -0.55800
O675        O  0.07809132  0.74053393  0.68250553    -0.55700
O676        O  0.05620788  0.74722991  0.75377180    -0.54900
O677        O  0.43633710  0.79133599  0.59914252    -0.56100
C678        C  0.40600752  0.82231559  0.68159938     0.76500
O679        O  0.47682881  0.84283384  0.59358994    -0.57300
C680        C  0.41242777  0.78740662  0.57924393     0.76500
C681        C  0.38258077  0.89120367  0.58702117     0.78900
Cd682      Cd  0.41853120  0.84122508  0.61783139     1.37500
O683        O  0.39561980  0.80577678  0.65891653    -0.56100
O684        O  0.36561883  0.87027304  0.60115137    -0.54900
C685        C  0.49248946  0.85093868  0.61846026     0.78800
O686        O  0.41515272  0.89062683  0.59011868    -0.57300
O687        O  0.41630575  0.84938025  0.67494289    -0.55800
O688        O  0.38970743  0.80841892  0.57715209    -0.55700
O689        O  0.47384676  0.85705415  0.64213073    -0.54900
O690        O  0.39193688  0.75582139  0.53638907    -0.56100
C691        C  0.40350704  0.68094172  0.96191877     0.76500
O692        O  0.48815106  0.71172074  0.51683438    -0.57300
C693        C  0.41288103  0.76004208  0.55925726     0.76500
C694        C  0.40013012  0.66469437  0.56512808     0.78900
Cd695      Cd  0.42411839  0.70893792  0.52008414     1.37500
O696        O  0.39061183  0.70696347  0.96981800    -0.56100
O697        O  0.38048347  0.68502758  0.55299194    -0.54900
C698        C  0.98860537  0.73685906  0.50110379     0.78800
O699        O  0.43175905  0.66461765  0.55658229    -0.57300
O700        O  0.42331966  0.66783912  0.98158176    -0.55800
O701        O  0.43617302  0.73992089  0.56394093    -0.55700
O702        O  0.45955674  0.74789569  0.99296029    -0.54900
O703        O  0.12577108  0.67900387  0.83789619    -0.56100
C704        C  0.10226044  0.69786714  0.91721384     0.76500
O705        O  0.04177527  0.63939063  0.90130553    -0.57300
C706        C  0.11357980  0.66395091  0.81485124     0.76500
C707        C  0.13549181  0.59320165  0.90916084     0.78900
Cd708      Cd  0.10035329  0.64375323  0.87829639     1.37500
O709        O  0.07825084  0.69176802  0.89805624    -0.56100
O710        O  0.15300681  0.61378240  0.89504129    -0.54900
C711        C  0.02669410  0.63380180  0.87544073     0.78800
O712        O  0.10297864  0.59443380  0.90595158    -0.57300
O713        O  0.12704666  0.67874537  0.91885556    -0.55800
O714        O  0.10111636  0.63747330  0.82088223    -0.55700
O715        O  0.04586135  0.62969667  0.85165023    -0.54900
O716        O  0.12152387  0.77947792  0.52244811    -0.56100
C717        C  0.09999458  0.72582295  0.93631423     0.76500
O718        O  0.02203223  0.77734985  0.97642763    -0.57300
C719        C  0.11097984  0.80617623  0.53067453     0.76500
C720        C  0.11084690  0.82244703  0.92669796     0.78900
Cd721      Cd  0.08664239  0.77885721  0.97295184     1.37500
O722        O  0.12002891  0.73153537  0.95944160    -0.56100
O723        O  0.13022402  0.80233285  0.93948229    -0.54900
C724        C  0.02125849  0.75246321  0.99253967     0.78800
O725        O  0.07907509  0.82252780  0.93480779    -0.57300
O726        O  0.07628306  0.74518000  0.93029579    -0.55800
O727        O  0.09132142  0.82031172  0.51162544    -0.55700
O728        O  0.05016413  0.74137004  0.50089925    -0.54900
O729        O  0.33212054  0.94885745  0.85276940    -0.56100
C730        C  0.36131591  0.91651465  0.93109857     0.76500
O731        O  0.28827277  0.89281252  0.84373691    -0.57300
C732        C  0.35232085  0.95077805  0.82947926     0.76500
C733        C  0.38401806  0.84753362  0.83698132     0.78900
Cd734      Cd  0.34658277  0.89676122  0.86786149     1.37500
O735        O  0.36819340  0.93373987  0.90787333    -0.56100
O736        O  0.40037025  0.86887504  0.85112254    -0.54900
C737        C  0.27267898  0.88557472  0.86887995     0.78800
O738        O  0.35143049  0.84735514  0.84015310    -0.57300
O739        O  0.35332049  0.88866085  0.92501001    -0.55800
O740        O  0.37121747  0.92755244  0.82367819    -0.55700
O741        O  0.29134786  0.88111490  0.89289228    -0.54900
O742        O  0.37084283  0.98148566  0.78543412    -0.56100
C743        C  0.36172253  0.55827874  0.71318569     0.76500
O744        O  0.27646862  0.52615196  0.76629752    -0.57300
C745        C  0.35177308  0.97830063  0.80975448     0.76500
C746        C  0.36578322  0.57368335  0.81524574     0.78900
Cd747      Cd  0.34041328  0.52943284  0.77073738     1.37500
O748        O  0.37539750  0.53271428  0.72152649    -0.56100
O749        O  0.38529870  0.55450701  0.80112899    -0.54900
C750        C  0.27653224  0.50100728  0.75054618     0.78800
O751        O  0.33346291  0.57241496  0.80924491    -0.57300
O752        O  0.34038129  0.57059400  0.73208843    -0.55800
O753        O  0.33033674  0.49959732  0.81612359    -0.55700
O754        O  0.30584398  0.49014794  0.74293216    -0.54900
O755        O  0.13947902  0.55687270  0.58534665    -0.56100
C756        C  0.16306899  0.53785173  0.66395546     0.76500
O757        O  0.22102934  0.60817502  0.60085943    -0.57300
C758        C  0.15209150  0.57138105  0.56216426     0.76500
C759        C  0.13048421  0.64201497  0.65753454     0.78900
Cd760      Cd  0.16566336  0.59199992  0.62534889     1.37500
O761        O  0.18500595  0.54198034  0.64233247    -0.56100
O762        O  0.11308056  0.62025482  0.64523078    -0.54900
C763        C  0.23975293  0.60161592  0.62437733     0.78800
O764        O  0.16258676  0.64237092  0.65161995    -0.57300
O765        O  0.14060495  0.55883308  0.66792712    -0.55800
O766        O  0.16463122  0.59792178  0.56778573    -0.55700
O767        O  0.22411448  0.59327890  0.64917225    -0.54900
O768        O  0.14469625  0.95653811  0.77080951    -0.56100
C769        C  0.16537463  0.01024772  0.68354975     0.76500
O770        O  0.24385242  0.96066684  0.72469662    -0.57300
C771        C  0.15506262  0.92957628  0.77837979     0.76500
C772        C  0.15451919  0.91398856  0.67602996     0.78900
Cd773      Cd  0.17921298  0.95809360  0.72122608     1.37500
O774        O  0.14600176  0.00537747  0.70733998    -0.56100
O775        O  0.13512476  0.93382358  0.68926007    -0.54900
C776        C  0.24414617  0.98515141  0.74145903     0.78800
O777        O  0.18662463  0.91461284  0.68301813    -0.57300
O778        O  0.18857837  0.99044779  0.67740568    -0.55800
O779        O  0.17443970  0.91571053  0.75887720    -0.55700
O780        O  0.21501143  0.99556324  0.75008382    -0.54900
O781        O  0.37636747  0.55532928  0.65867021    -0.56100
C782        C  0.35286329  0.53712088  0.57898274     0.76500
O783        O  0.29328937  0.60019095  0.59609097    -0.57300
C784        C  0.36640813  0.57162431  0.68169425     0.76500
C785        C  0.38566984  0.64140641  0.58660294     0.78900
Cd786      Cd  0.35163452  0.59083223  0.61851197     1.37500
O787        O  0.32701964  0.54509779  0.59527240    -0.56100
O788        O  0.40328179  0.61891888  0.59710254    -0.54900
C789        C  0.27776105  0.60121374  0.62234632     0.78800
O790        O  0.35398672  0.64204664  0.59404430    -0.57300
O791        O  0.37958081  0.55401484  0.58070002    -0.55800
O792        O  0.35615925  0.59883083  0.67553441    -0.55700
O793        O  0.29649965  0.59963250  0.64671497    -0.54900
O794        O  0.36971816  0.95577908  0.97059147    -0.56100
C795        C  0.35071303  0.00951933  0.55936399     0.76500
O796        O  0.27413275  0.95866561  0.52039826    -0.57300
C797        C  0.35803486  0.92921649  0.96303623     0.76500
C798        C  0.36612608  0.91406461  0.56631779     0.78900
Cd799      Cd  0.33854245  0.95693372  0.52184810     1.37500
O800        O  0.37200876  0.00354370  0.53721751    -0.56100
O801        O  0.38454487  0.93431595  0.55259504    -0.54900
C802        C  0.27323867  0.98269927  0.50296074     0.78800
O803        O  0.33387808  0.91360048  0.55990702    -0.57300
O804        O  0.32595976  0.99079331  0.56386433    -0.55800
O805        O  0.33992477  0.91514912  0.98338340    -0.55700
O806        O  0.30201209  0.99324658  0.99343576    -0.54900
O807        O  0.18398818  0.94311906  0.89409753    -0.57700
C808        C  0.14901953  0.91615219  0.80970382     0.76500
O809        O  0.21602335  0.88238246  0.84642016    -0.57300
C810        C  0.15962651  0.94912081  0.91294420     0.76500
C811        C  0.12593281  0.84551532  0.90516033     0.78900
Cd812      Cd  0.16103333  0.89577123  0.87307542     1.37500
O813        O  0.13950685  0.93266812  0.83273505    -0.56100
O814        O  0.10832858  0.86681367  0.89224588    -0.54900
C815        C  0.23471645  0.88517363  0.87071023     0.78800
O816        O  0.15819917  0.84586183  0.90010064    -0.57300
O817        O  0.15738294  0.88839951  0.81576106    -0.55800
O818        O  0.13400863  0.93081766  0.91303466    -0.55700
O819        O  0.21913801  0.89001774  0.89646637    -0.54900
O820        O  0.14302722  0.97978353  0.95776570    -0.56100
C821        C  0.15653442  0.55670321  0.53119122     0.76500
O822        O  0.24030264  0.52218629  0.97684520    -0.57300
C823        C  0.16253983  0.97572733  0.93387072     0.76500
C824        C  0.15111736  0.56992754  0.92994771     0.78900
Cd825      Cd  0.17659231  0.52588456  0.97415413     1.37500
O826        O  0.14284170  0.53076693  0.52405809    -0.56100
O827        O  0.13180660  0.55050236  0.94390993    -0.54900
C828        C  0.24061628  0.49799831  0.99402476     0.78800
O829        O  0.18342762  0.56913163  0.93613387    -0.57300
O830        O  0.17748529  0.56832035  0.51148763    -0.55800
O831        O  0.18650127  0.49520625  0.92902821    -0.55700
O832        O  0.21152387  0.48768623  0.50311120    -0.54900
O833        O  0.89678739  0.28407249  0.22196462    -0.56100
C834        C  0.91728794  0.22976795  0.30964498     0.76500
O835        O  0.99456474  0.27842924  0.27019894    -0.57300
C836        C  0.91040698  0.30956441  0.21337626     0.76500
C837        C  0.90113877  0.32493387  0.31628620     0.78900
Cd838      Cd  0.93002822  0.28193965  0.27210767     1.37500
O839        O  0.89748261  0.23479972  0.28615324    -0.56100
O840        O  0.88327555  0.30434898  0.30247107    -0.54900
C841        C  0.99461418  0.25355402  0.25396551     0.78800
O842        O  0.93343528  0.32583428  0.31006603    -0.57300
O843        O  0.94062897  0.24952897  0.31571248    -0.55800
O844        O  0.93110381  0.32245843  0.23248268    -0.55700
O845        O  0.96543309  0.24331496  0.24515972    -0.54900
O846        O  0.93912219  0.19572306  0.34803892    -0.56100
C847        C  0.89978967  0.16771203  0.43028544     0.76500
O848        O  0.91354380  0.09857677  0.33956057    -0.57300
C849        C  0.91506178  0.20198104  0.32895078     0.76500
C850        C  0.98883688  0.13500582  0.37260896     0.78900
Cd851      Cd  0.91569088  0.14774494  0.36761503     1.37500
O852        O  0.89042433  0.18394657  0.40700639    -0.56100
O853        O  0.97424800  0.13857907  0.34616213    -0.54900
C854        C  0.88109358  0.09719540  0.33603034     0.78800
O855        O  0.96938701  0.13503925  0.39656687    -0.57300
O856        O  0.91025925  0.14050336  0.42443567    -0.55800
O857        O  0.89011065  0.18304387  0.32736071    -0.55700
O858        O  0.86334428  0.11781265  0.34987290    -0.54900
O859        O  0.58029124  0.29287715  0.14809845    -0.56100
C860        C  0.61710931  0.31901937  0.06217893     0.76500
O861        O  0.54917253  0.34791980  0.09631178    -0.57300
C862        C  0.60535648  0.28626453  0.16593798     0.76500
C863        C  0.63913416  0.39037765  0.15534783     0.78900
Cd864      Cd  0.60394873  0.33924744  0.12510767     1.37500
O865        O  0.62475781  0.30178630  0.08524515    -0.56100
O866        O  0.65666578  0.36901295  0.14246772    -0.54900
C867        C  0.53042920  0.35063524  0.12054695     0.78800
O868        O  0.60672377  0.38955686  0.15117904    -0.57300
O869        O  0.61033358  0.34711604  0.06827765    -0.55800
O870        O  0.63138852  0.30406352  0.16502599    -0.55700
O871        O  0.54588846  0.35069327  0.14683779    -0.54900
O872        O  0.62401786  0.25395352  0.20905350    -0.56100
C873        C  0.60967039  0.17784982  0.28342363     0.76500
O874        O  0.52635886  0.21220401  0.22927950    -0.57300
C875        C  0.60294343  0.25929025  0.18652335     0.76500
C876        C  0.61530989  0.16473491  0.17938780     0.78900
Cd877      Cd  0.59022176  0.20783142  0.22553576     1.37500
O878        O  0.62353198  0.20356446  0.27581262    -0.56100
O879        O  0.63474855  0.18409998  0.19330389    -0.54900
C880        C  0.52677512  0.23709952  0.24544257     0.78800
O881        O  0.58324748  0.16503305  0.18657679    -0.57300
O882        O  0.58909415  0.16576372  0.26367420    -0.55800
O883        O  0.57809651  0.24052837  0.18249946    -0.55700
O884        O  0.55620803  0.24722917  0.25377059    -0.54900
O885        O  0.93633480  0.29133308  0.09914234    -0.56100
C886        C  0.90600394  0.32231427  0.18159962     0.76500
O887        O  0.97682552  0.34283585  0.09358921    -0.57300
C888        C  0.91242474  0.28740283  0.07924458     0.76500
C889        C  0.88257700  0.39119942  0.08702084     0.78900
Cd890      Cd  0.91852769  0.34122154  0.11783149     1.37500
O891        O  0.89561519  0.30577510  0.15891741    -0.56100
O892        O  0.86561483  0.37026995  0.10115257    -0.54900
C893        C  0.99248633  0.35093602  0.11846098     0.78800
O894        O  0.91514902  0.39062191  0.09011745    -0.57300
O895        O  0.91630299  0.34937849  0.17494235    -0.55800
O896        O  0.88970288  0.30841384  0.07715414    -0.55700
O897        O  0.97384373  0.35704597  0.14213303    -0.54900
O898        O  0.89193534  0.25581843  0.03638867    -0.56100
C899        C  0.90350686  0.18094177  0.46191931     0.76500
O900        O  0.98815163  0.21171990  0.01683211    -0.57300
C901        C  0.91287933  0.26003898  0.05925709     0.76500
C902        C  0.90013099  0.16469228  0.06512405     0.78900
Cd903      Cd  0.92411883  0.20893718  0.02008167     1.37500
O904        O  0.89061140  0.20696361  0.46981825    -0.56100
O905        O  0.88048396  0.18502532  0.05298799    -0.54900
C906        C  0.48860629  0.23685952  0.00110478     0.78800
O907        O  0.93175995  0.16461625  0.05657879    -0.57300
O908        O  0.92331832  0.16783887  0.48158296    -0.55800
O909        O  0.93617237  0.23991863  0.06393984    -0.55700
O910        O  0.95955489  0.24789355  0.49295723    -0.54900
O911        O  0.62577457  0.17900401  0.33789332    -0.56100
C912        C  0.60226415  0.19786917  0.41721164     0.76500
O913        O  0.54177947  0.13938879  0.40130517    -0.57300
C914        C  0.61358403  0.16394995  0.31484884     0.76500
C915        C  0.63549342  0.09320145  0.40915905     0.78900
Cd916      Cd  0.60035706  0.14375472  0.37829461     1.37500
O917        O  0.57825278  0.19176777  0.39805658    -0.56100
O918        O  0.65300919  0.11378254  0.39504075    -0.54900
C919        C  0.52669718  0.13380534  0.37543957     0.78800
O920        O  0.60298045  0.09443409  0.40594879    -0.57300
O921        O  0.62705288  0.17874977  0.41885053    -0.55800
O922        O  0.60112155  0.13747208  0.32088062    -0.55700
O923        O  0.54586352  0.12970510  0.35164771    -0.54900
O924        O  0.62152500  0.27947717  0.02244804    -0.56100
C925        C  0.59999685  0.22582466  0.43631242     0.76500
O926        O  0.52203142  0.27734772  0.47642608    -0.57300
C927        C  0.61098116  0.30617573  0.03067384     0.76500
C928        C  0.61084410  0.32244834  0.42669667     0.78900
Cd929      Cd  0.58664152  0.27885785  0.47295120     1.37500
O930        O  0.62003205  0.23153847  0.45943888    -0.56100
O931        O  0.63022137  0.30233372  0.43948019    -0.54900
C932        C  0.52125851  0.25246161  0.49253901     0.78800
O933        O  0.57907280  0.32252972  0.43480796    -0.57300
O934        O  0.57628287  0.24517974  0.43029568    -0.55800
O935        O  0.59132353  0.32031130  0.01162414    -0.55700
O936        O  0.55016525  0.24136851  0.00089777    -0.54900
O937        O  0.83212384  0.44885939  0.35277418    -0.56100
C938        C  0.86131481  0.41651302  0.43110306     0.76500
O939        O  0.78827158  0.39282709  0.34374171    -0.57300
C940        C  0.85232330  0.45077814  0.32948324     0.76500
C941        C  0.88401600  0.34753491  0.33698133     0.78900
Cd942      Cd  0.84658190  0.39676138  0.36786510     1.37500
O943        O  0.86819401  0.43373804  0.40787805    -0.56100
O944        O  0.90036856  0.36887530  0.35112380    -0.54900
C945        C  0.77267810  0.38557647  0.36888119     0.78800
O946        O  0.85142841  0.34735688  0.34015312    -0.57300
O947        O  0.85331701  0.38865998  0.42501408    -0.55800
O948        O  0.87121787  0.42755113  0.32368202    -0.55700
O949        O  0.79134717  0.38110399  0.39289086    -0.54900
O950        O  0.87084652  0.48148292  0.28543653    -0.56100
C951        C  0.86172424  0.05827789  0.21318420     0.76500
O952        O  0.77647228  0.02614938  0.26629690    -0.57300
C953        C  0.85177675  0.47829979  0.30975712     0.76500
C954        C  0.86578724  0.07368387  0.31524363     0.78900
Cd955      Cd  0.84041655  0.02943232  0.27073654     1.37500
O956        O  0.87540045  0.03271401  0.22152539    -0.56100
O957        O  0.88530258  0.05450631  0.30112829    -0.54900
C958        C  0.77653659  0.00100495  0.25054505     0.78800
O959        O  0.83346714  0.07241619  0.30924190    -0.57300
O960        O  0.84038268  0.07059276  0.23208692    -0.55800
O961        O  0.83033978  0.99959993  0.31612503    -0.55700
O962        O  0.80584867  0.99014638  0.24293089    -0.54900
O963        O  0.63948293  0.05687324  0.08534770    -0.56100
C964        C  0.66307652  0.03785225  0.16395529     0.76500
O965        O  0.72103225  0.10816815  0.10085232    -0.57300
C966        C  0.65209348  0.07138216  0.06216475     0.76500
C967        C  0.63048888  0.14201604  0.15753407     0.78900
Cd968      Cd  0.66566764  0.09200100  0.12534855     1.37500
O969        O  0.68502008  0.04198626  0.14233901    -0.56100
O970        O  0.61308546  0.12025669  0.14522899    -0.54900
C971        C  0.73975615  0.10161864  0.12437280     0.78800
O972        O  0.66259183  0.14237160  0.15162099    -0.57300
O973        O  0.64060507  0.05882857  0.16792051    -0.55800
O974        O  0.66463307  0.09792299  0.06778566    -0.55700
O975        O  0.72411826  0.09329109  0.14917132    -0.54900
O976        O  0.64470002  0.45653731  0.27080722    -0.56100
C977        C  0.66538140  0.51024682  0.18354836     0.76500
O978        O  0.74385742  0.46066252  0.22469481    -0.57300
C979        C  0.65506610  0.42957582  0.27837859     0.76500
C980        C  0.65451927  0.41398637  0.17602893     0.78900
Cd981      Cd  0.67921723  0.45809119  0.22122398     1.37500
O982        O  0.64600692  0.50537548  0.20733722    -0.56100
O983        O  0.63512601  0.43382080  0.18926129    -0.54900
C984        C  0.74415165  0.48514724  0.24145693     0.78800
O985        O  0.68662548  0.41461098  0.18301426    -0.57300
O986        O  0.68858552  0.49044707  0.17740470    -0.55800
O987        O  0.67444417  0.41570954  0.25887702    -0.55700
O988        O  0.71501694  0.49555989  0.25008115    -0.54900
O989        O  0.87636993  0.05532873  0.15866874    -0.56100
C990        C  0.85286436  0.03711760  0.07898345     0.76500
O991        O  0.79329131  0.10017812  0.09608606    -0.57300
C992        C  0.86640919  0.07162329  0.18169262     0.76500
C993        C  0.88567080  0.14140419  0.08659876     0.78900
Cd994      Cd  0.85163666  0.09083085  0.11850976     1.37500
O995        O  0.82702384  0.04509094  0.09527924    -0.56100
O996        O  0.90328398  0.11891862  0.09710127    -0.54900
C997        C  0.77776406  0.10121575  0.12234129     0.78800
O998        O  0.85398707  0.14204260  0.09403755    -0.57300
O999        O  0.87957929  0.05401543  0.08069421    -0.55800
O1000       O  0.85615886  0.09882929  0.17553252    -0.55700
O1001       O  0.79650351  0.09964827  0.14671036    -0.54900
O1002       O  0.86971655  0.45577832  0.47059485    -0.56100
C1003       C  0.85071428  0.50951527  0.05936330     0.76500
O1004       O  0.77413231  0.45866364  0.02039762    -0.57300
C1005       C  0.85803492  0.42921491  0.46304076     0.76500
C1006       C  0.86612284  0.41405998  0.06631670     0.78900
Cd1007     Cd  0.83854181  0.45692997  0.02184640     1.37500
O1008       O  0.87200916  0.50353959  0.03721619    -0.56100
O1009       O  0.88454220  0.43431111  0.05259436    -0.54900
C1010       C  0.77323880  0.48269774  0.00296057     0.78800
O1011       O  0.83387510  0.41359581  0.05990479    -0.57300
O1012       O  0.82596097  0.49078931  0.06386398    -0.55800
O1013       O  0.83992708  0.41514675  0.48338912    -0.55700
O1014       O  0.80201248  0.49324435  0.49343734    -0.54900
O1015       O  0.68399107  0.44311664  0.39409947    -0.57700
C1016       C  0.64902133  0.41615217  0.30970263     0.76500
O1017       O  0.71602386  0.38239275  0.34641851    -0.57300
C1018       C  0.65962747  0.44912109  0.41294315     0.76500
C1019       C  0.62592987  0.34551624  0.40515848     0.78900
Cd1020     Cd  0.66103241  0.39577184  0.37307457     1.37500
O1021       O  0.63950756  0.43266867  0.33273324    -0.56100
O1022       O  0.60832634  0.36681682  0.39224691    -0.54900
C1023       C  0.73471556  0.38517449  0.37071033     0.78800
O1024       O  0.65819560  0.34586033  0.40009558    -0.57300
O1025       O  0.65738384  0.38839954  0.31576061    -0.55800
O1026       O  0.63400714  0.43082070  0.41303077    -0.55700
O1027       O  0.71913576  0.39000867  0.39646790    -0.54900
O1028       O  0.64302686  0.47978533  0.45776292    -0.56100
C1029       C  0.65653464  0.05670453  0.03119157     0.76500
O1030       O  0.74030165  0.02218595  0.47684534    -0.57300
C1031       C  0.66254135  0.47572747  0.43386948     0.76500
C1032       C  0.65111813  0.06992666  0.42994582     0.78900
Cd1033     Cd  0.67659139  0.02588316  0.47415306     1.37500
O1034       O  0.64284059  0.03076883  0.02405863    -0.56100
O1035       O  0.63180676  0.05050141  0.44390731    -0.54900
C1036       C  0.74061526  0.99799765  0.49402443     0.78800
O1037       O  0.68342808  0.06913034  0.43613280    -0.57300
O1038       O  0.67748563  0.06832118  0.01148773    -0.55800
O1039       O  0.68650377  0.99520276  0.42902991    -0.55700
O1040       O  0.71152327  0.98768804  0.00311286    -0.54900
O1041       O  0.89679163  0.28408012  0.72196949    -0.56100
C1042       C  0.91729328  0.22977400  0.80964155     0.76500
O1043       O  0.99456804  0.27843782  0.77020120    -0.57300
C1044       C  0.91040338  0.30957591  0.71338312     0.76500
C1045       C  0.90114521  0.32493674  0.81629381     0.78900
Cd1046     Cd  0.93003221  0.28194891  0.77211016     1.37500
O1047       O  0.89748880  0.23480669  0.78614953    -0.56100
O1048       O  0.88328166  0.30435402  0.80247584    -0.54900
C1049       C  0.99461570  0.25356485  0.75396424     0.78800
O1050       O  0.93344228  0.32583682  0.81007540    -0.57300
O1051       O  0.94063338  0.24953518  0.81571129    -0.55800
O1052       O  0.93109519  0.32247453  0.73249085    -0.55700
O1053       O  0.96543443  0.24333009  0.74515410    -0.54900
O1054       O  0.93911425  0.19573916  0.84805072    -0.56100
C1055       C  0.89978799  0.16770255  0.93027530     0.76500
O1056       O  0.91355393  0.09859305  0.83952822    -0.57300
C1057       C  0.91506655  0.20198660  0.82894603     0.76500
C1058       C  0.98884112  0.13500350  0.87260867     0.78900
Cd1059     Cd  0.91569660  0.14774713  0.86760447     1.37500
O1060       O  0.89040303  0.18393191  0.90699863    -0.56100
O1061       O  0.97425580  0.13856707  0.84615880    -0.54900
C1062       C  0.88110151  0.09719854  0.83602092     0.78800
O1063       O  0.96938868  0.13505094  0.89656451    -0.57300
O1064       O  0.91027850  0.14050101  0.92442266    -0.55800
O1065       O  0.89012791  0.18303797  0.82733770    -0.55700
O1066       O  0.86335199  0.11780170  0.84988525    -0.54900
O1067       O  0.58027205  0.29291675  0.64813630    -0.56100
C1068       C  0.61712114  0.31902802  0.56216708     0.76500
O1069       O  0.54918156  0.34782559  0.59628780    -0.57300
C1070       C  0.60535899  0.28627240  0.66593805     0.76500
C1071       C  0.63914256  0.39038581  0.65533953     0.78900
Cd1072     Cd  0.60396468  0.33924976  0.62509725     1.37500
O1073       O  0.62478153  0.30179661  0.58523159    -0.56100
O1074       O  0.65667621  0.36901388  0.64247446    -0.54900
C1075       C  0.53044436  0.35062929  0.62051615     0.78800
O1076       O  0.60673477  0.38957172  0.65115173    -0.57300
O1077       O  0.61034169  0.34712387  0.56826698    -0.55800
O1078       O  0.63141743  0.30403818  0.66498604    -0.55700
O1079       O  0.54590985  0.35077551  0.64680397    -0.54900
O1080       O  0.62403761  0.25394068  0.70903203    -0.56100
C1081       C  0.60966706  0.17785514  0.78342116     0.76500
O1082       O  0.52636013  0.21220202  0.72927580    -0.57300
C1083       C  0.60294280  0.25929750  0.68652256     0.76500
C1084       C  0.61530766  0.16473344  0.67938368     0.78900
Cd1085     Cd  0.59022277  0.20783304  0.72553094     1.37500
O1086       O  0.62352218  0.20357348  0.77581387    -0.56100
O1087       O  0.63474537  0.18410254  0.69329456    -0.54900
C1088       C  0.52677505  0.23709381  0.74544470     0.78800
O1089       O  0.58324599  0.16502976  0.68657589    -0.57300
O1090       O  0.58910141  0.16576318  0.76366632    -0.55800
O1091       O  0.57807451  0.24055440  0.68251790    -0.55700
O1092       O  0.55620753  0.24722313  0.75377521    -0.54900
O1093       O  0.93635469  0.29134745  0.59914052    -0.56100
C1094       C  0.90599913  0.32232354  0.68160617     0.76500
O1095       O  0.97682366  0.34287823  0.59359641    -0.57300
C1096       C  0.91243153  0.28740475  0.57925850     0.76500
C1097       C  0.88258561  0.39120285  0.58702501     0.78900
Cd1098     Cd  0.91852822  0.34122656  0.61784037     1.37500
O1099       O  0.89562571  0.30577751  0.65892339    -0.56100
O1100       O  0.86562031  0.37027806  0.60116087    -0.54900
C1101       C  0.99248336  0.35094648  0.61847957     0.78800
O1102       O  0.91515758  0.39062153  0.59011968    -0.57300
O1103       O  0.91628397  0.34939245  0.67494933    -0.55800
O1104       O  0.88969411  0.30840382  0.57718277    -0.55700
O1105       O  0.97384068  0.35702215  0.64216050    -0.54900
O1106       O  0.89193542  0.25581499  0.53640990    -0.56100
C1107       C  0.90350409  0.18093279  0.96190906     0.76500
O1108       O  0.98815817  0.21172593  0.51684307    -0.57300
C1109       C  0.91288739  0.26004109  0.55927114     0.76500
C1110       C  0.90013927  0.16469870  0.56513482     0.78900
Cd1111     Cd  0.92412625  0.20894228  0.52009267     1.37500
O1112       O  0.89059499  0.20694806  0.96981194    -0.56100
O1113       O  0.88049568  0.18504015  0.55300888    -0.54900
C1114       C  0.48860014  0.23685558  0.50109851     0.78800
O1115       O  0.93176531  0.16461437  0.55658017    -0.57300
O1116       O  0.92332797  0.16783811  0.98156824    -0.55800
O1117       O  0.93618971  0.23992728  0.56394587    -0.55700
O1118       O  0.95955042  0.24788905  0.99294723    -0.54900
O1119       O  0.62577050  0.17900839  0.83789119    -0.56100
C1120       C  0.60226008  0.19787906  0.91720639     0.76500
O1121       O  0.54176883  0.13940395  0.90130405    -0.57300
C1122       C  0.61357499  0.16395641  0.81484729     0.76500
C1123       C  0.63548046  0.09320953  0.90915678     0.78900
Cd1124     Cd  0.60034573  0.14376367  0.87829245     1.37500
O1125       O  0.57825202  0.19178454  0.89804564    -0.56100
O1126       O  0.65299697  0.11378251  0.89502677    -0.54900
C1127       C  0.52668621  0.13381117  0.87544067     0.78800
O1128       O  0.60296662  0.09445053  0.90595867    -0.57300
O1129       O  0.62704235  0.17875339  0.91885039    -0.55800
O1130       O  0.60110403  0.13748210  0.82087991    -0.55700
O1131       O  0.54585208  0.12970550  0.85164951    -0.54900
O1132       O  0.62153549  0.27948666  0.52243507    -0.56100
C1133       C  0.59999564  0.22583258  0.93631005     0.76500
O1134       O  0.52203556  0.27735525  0.97643636    -0.57300
C1135       C  0.61098291  0.30618121  0.53066462     0.76500
C1136       C  0.61084830  0.32244989  0.92670282     0.78900
Cd1137     Cd  0.58664512  0.27886041  0.97295609     1.37500
O1138       O  0.62003206  0.23154227  0.95943667    -0.56100
O1139       O  0.63022510  0.30233414  0.93948518    -0.54900
C1140       C  0.52126352  0.25246653  0.99254522     0.78800
O1141       O  0.57907747  0.32253366  0.93481589    -0.57300
O1142       O  0.57628232  0.24518940  0.93029650    -0.55800
O1143       O  0.59130865  0.32030857  0.51162251    -0.55700
O1144       O  0.55016004  0.24136645  0.50089637    -0.54900
O1145       O  0.83212019  0.44885826  0.85277111    -0.56100
C1146       C  0.86131718  0.41652123  0.93110393     0.76500
O1147       O  0.78827574  0.39281913  0.84374698    -0.57300
C1148       C  0.85232339  0.45077990  0.82948322     0.76500
C1149       C  0.88402167  0.34753714  0.83698841     0.78900
Cd1150     Cd  0.84658633  0.39676441  0.86786771     1.37500
O1151       O  0.86819570  0.43374612  0.90787862    -0.56100
O1152       O  0.90037388  0.36887409  0.85113651    -0.54900
C1153       C  0.77268361  0.38557392  0.86888874     0.78800
O1154       O  0.85143318  0.34736276  0.84015277    -0.57300
O1155       O  0.85332312  0.38866715  0.92501569    -0.55800
O1156       O  0.87122350  0.42755563  0.82368510    -0.55700
O1157       O  0.79135385  0.38110856  0.89289910    -0.54900
O1158       O  0.87084507  0.48148631  0.78543695    -0.56100
C1159       C  0.86172037  0.05827657  0.71318240     0.76500
O1160       O  0.77646610  0.02616005  0.76629733    -0.57300
C1161       C  0.85177583  0.47830207  0.80975757     0.76500
C1162       C  0.86579078  0.07368786  0.81523684     0.78900
Cd1163     Cd  0.84041015  0.02943716  0.77073690     1.37500
O1164       O  0.87538735  0.03270837  0.72152230    -0.56100
O1165       O  0.88530371  0.05451317  0.80111450    -0.54900
C1166       C  0.77652914  0.00101220  0.75055089     0.78800
O1167       O  0.83346867  0.07241778  0.80924480    -0.57300
O1168       O  0.84038517  0.07059789  0.73208662    -0.55800
O1169       O  0.83033384  0.99960699  0.81612898    -0.55700
O1170       O  0.80584024  0.99015048  0.74293877    -0.54900
O1171       O  0.63950481  0.05685407  0.58535302    -0.56100
C1172       C  0.66308127  0.03785629  0.66396610     0.76500
O1173       O  0.72103353  0.10816916  0.60085487    -0.57300
C1174       C  0.65210566  0.07136583  0.56216777     0.76500
C1175       C  0.63048739  0.14201260  0.65753240     0.78900
Cd1176     Cd  0.66567149  0.09199713  0.62535080     1.37500
O1177       O  0.68504254  0.04199928  0.64236626    -0.56100
O1178       O  0.61308700  0.12024695  0.64523568    -0.54900
C1179       C  0.73975855  0.10162133  0.62437511     0.78800
O1180       O  0.66258907  0.14237314  0.65161334    -0.57300
O1181       O  0.64059220  0.05882095  0.66791194    -0.55800
O1182       O  0.66463435  0.09791138  0.56778600    -0.55700
O1183       O  0.72412210  0.09329318  0.64917428    -0.54900
O1184       O  0.64470606  0.45654352  0.77082140    -0.56100
C1185       C  0.66538484  0.51025053  0.68356392     0.76500
O1186       O  0.74385397  0.46066695  0.72470174    -0.57300
C1187       C  0.65506756  0.42958015  0.77839072     0.76500
C1188       C  0.65452182  0.41399371  0.67602638     0.78900
Cd1189     Cd  0.67921434  0.45809295  0.72123373     1.37500
O1190       O  0.64599499  0.50537004  0.70734066    -0.56100
O1191       O  0.63512717  0.43383145  0.68925194    -0.54900
C1192       C  0.74414860  0.48515154  0.74146398     0.78800
O1193       O  0.68662478  0.41461280  0.68302447    -0.57300
O1194       O  0.68860222  0.49045985  0.67743148    -0.55800
O1195       O  0.67443767  0.41571009  0.75888537    -0.55700
O1196       O  0.71501425  0.49556255  0.75009145    -0.54900
O1197       O  0.87636084  0.05532314  0.65866616    -0.56100
C1198       C  0.85287432  0.03712454  0.57898133     0.76500
O1199       O  0.79329164  0.10016841  0.59608642    -0.57300
C1200       C  0.86640888  0.07162061  0.68169085     0.76500
C1201       C  0.88567754  0.14140993  0.58660735     0.78900
Cd1202     Cd  0.85163908  0.09083542  0.61851067     1.37500
O1203       O  0.82703604  0.04509070  0.59528382    -0.56100
O1204       O  0.90328696  0.11891798  0.59710071    -0.54900
C1205       C  0.77776636  0.10122002  0.62234204     0.78800
O1206       O  0.85399542  0.14205356  0.59405206    -0.57300
O1207       O  0.87958351  0.05403053  0.58068425    -0.55800
O1208       O  0.85617033  0.09883043  0.67553215    -0.55700
O1209       O  0.79650774  0.09966748  0.64671084    -0.54900
O1210       O  0.86971515  0.45578470  0.97059944    -0.56100
C1211       C  0.85073069  0.50951669  0.55935822     0.76500
O1212       O  0.77414482  0.45865347  0.52039658    -0.57300
C1213       C  0.85803152  0.42922303  0.96304118     0.76500
C1214       C  0.86613450  0.41406231  0.56631865     0.78900
Cd1215     Cd  0.83855510  0.45692810  0.52184594     1.37500
O1216       O  0.87202073  0.50354423  0.53720632    -0.56100
O1217       O  0.88455722  0.43430608  0.55258860    -0.54900
C1218       C  0.77324821  0.48268935  0.50296244     0.78800
O1219       O  0.83388538  0.41360396  0.55991273    -0.57300
O1220       O  0.82598364  0.49078583  0.56386567    -0.55800
O1221       O  0.83991628  0.41515577  0.98338464    -0.55700
O1222       O  0.80200429  0.49324721  0.99343211    -0.54900
O1223       O  0.68400127  0.44310908  0.89412237    -0.57700
C1224       C  0.64902657  0.41615782  0.80971575     0.76500
O1225       O  0.71602883  0.38239444  0.84642719    -0.57300
C1226       C  0.65963113  0.44911868  0.91295748     0.76500
C1227       C  0.62593427  0.34551693  0.90516439     0.78900
Cd1228     Cd  0.66103913  0.39577204  0.87308577     1.37500
O1229       O  0.63952356  0.43267665  0.83274825    -0.56100
O1230       O  0.60833209  0.36682091  0.89225731    -0.54900
C1231       C  0.73472121  0.38517116  0.87071925     0.78800
O1232       O  0.65819936  0.34585721  0.90009781    -0.57300
O1233       O  0.65738123  0.38840295  0.81577193    -0.55800
O1234       O  0.63400758  0.43082194  0.91303859    -0.55700
O1235       O  0.71914221  0.39000101  0.89647807    -0.54900
O1236       O  0.64302138  0.47979211  0.95776852    -0.56100
C1237       C  0.65654616  0.05668903  0.53119395     0.76500
O1238       O  0.74029052  0.02219022  0.97684195    -0.57300
C1239       C  0.66254034  0.47572914  0.93387891     0.76500
C1240       C  0.65110615  0.06993469  0.92994306     0.78900
Cd1241     Cd  0.67657954  0.02589337  0.97415404     1.37500
O1242       O  0.64286311  0.03074762  0.52406477    -0.56100
O1243       O  0.63179543  0.05050869  0.94390412    -0.54900
C1244       C  0.74060346  0.99800448  0.99402482     0.78800
O1245       O  0.68341580  0.06913939  0.93613079    -0.57300
O1246       O  0.67748488  0.06831383  0.51148452    -0.55800
O1247       O  0.68649830  0.99520500  0.92903928    -0.55700
O1248       O  0.71153538  0.98767563  0.50310627    -0.54900
O1249       O  0.89678919  0.78407573  0.22196367    -0.56100
C1250       C  0.91728758  0.72976968  0.30964334     0.76500
O1251       O  0.99456424  0.77842998  0.27020051    -0.57300
C1252       C  0.91040901  0.80956772  0.21337584     0.76500
C1253       C  0.90113981  0.82493496  0.31628750     0.78900
Cd1254     Cd  0.93002814  0.78194205  0.27210750     1.37500
O1255       O  0.89748085  0.73480317  0.28615293    -0.56100
O1256       O  0.88327616  0.80435082  0.30247188    -0.54900
C1257       C  0.99461285  0.75355510  0.25396632     0.78800
O1258       O  0.93343639  0.82583513  0.31006725    -0.57300
O1259       O  0.94063022  0.74952938  0.31571017    -0.55800
O1260       O  0.93110513  0.82246166  0.23248297    -0.55700
O1261       O  0.96543171  0.74331737  0.24515947    -0.54900
O1262       O  0.93912250  0.69572299  0.34803509    -0.56100
C1263       C  0.89978744  0.66771158  0.43028306     0.76500
O1264       O  0.91354454  0.59857809  0.33955705    -0.57300
C1265       C  0.91506111  0.70198249  0.32894853     0.76500
C1266       C  0.98883546  0.63500758  0.37261009     0.78900
Cd1267     Cd  0.91568972  0.64774632  0.36761246     1.37500
O1268       O  0.89042227  0.68394686  0.40700431    -0.56100
O1269       O  0.97424711  0.63857385  0.34616189    -0.54900
C1270       C  0.88109428  0.59719567  0.33602759     0.78800
O1271       O  0.96938524  0.63504834  0.39656758    -0.57300
O1272       O  0.91025630  0.64050288  0.42443264    -0.55800
O1273       O  0.89010862  0.68304666  0.32735971    -0.55700
O1274       O  0.86334454  0.61781227  0.34987078    -0.54900
O1275       O  0.58028297  0.79288420  0.14810458    -0.56100
C1276       C  0.61711267  0.81901979  0.06217774     0.76500
O1277       O  0.54917319  0.84790507  0.09630496    -0.57300
C1278       C  0.60535055  0.78626707  0.16593954     0.76500
C1279       C  0.63913561  0.89037826  0.15534544     0.78900
Cd1280     Cd  0.60394921  0.83924820  0.12510539     1.37500
O1281       O  0.62475867  0.80178622  0.08524442    -0.56100
O1282       O  0.65666669  0.86901094  0.14246931    -0.54900
C1283       C  0.53043087  0.85063761  0.12053882     0.78800
O1284       O  0.60672583  0.88956044  0.15117204    -0.57300
O1285       O  0.61033937  0.84711697  0.06827594    -0.55800
O1286       O  0.63138663  0.80406104  0.16502218    -0.55700
O1287       O  0.54589088  0.85071220  0.14682917    -0.54900
O1288       O  0.62401437  0.75395327  0.20905215    -0.56100
C1289       C  0.60966642  0.67784985  0.28342426     0.76500
O1290       O  0.52635577  0.71220516  0.22927883    -0.57300
C1291       C  0.60293710  0.75929259  0.18652491     0.76500
C1292       C  0.61530674  0.66473499  0.17938746     0.78900
Cd1293     Cd  0.59021830  0.70783148  0.22553598     1.37500
O1294       O  0.62352973  0.70356365  0.27581237    -0.56100
O1295       O  0.63474464  0.68410176  0.19330195    -0.54900
C1296       C  0.52677264  0.73709950  0.24544366     0.78800
O1297       O  0.58324478  0.66503132  0.18657829    -0.57300
O1298       O  0.58908869  0.66576474  0.26367566    -0.55800
O1299       O  0.57808791  0.74053256  0.18250320    -0.55700
O1300       O  0.55620567  0.74722763  0.25377343    -0.54900
O1301       O  0.93632788  0.79133127  0.09914867    -0.56100
C1302       C  0.90600678  0.82231768  0.18159909     0.76500
O1303       O  0.97682630  0.84282922  0.09358577    -0.57300
C1304       C  0.91242262  0.78740538  0.07924530     0.76500
C1305       C  0.88257859  0.89120115  0.08701859     0.78900
Cd1306     Cd  0.91852942  0.84122477  0.11783030     1.37500
O1307       O  0.89561818  0.80577858  0.15891684    -0.56100
O1308       O  0.86561644  0.87027171  0.10115065    -0.54900
C1309       C  0.99248794  0.85093859  0.11845406     0.78800
O1310       O  0.91515047  0.89062431  0.09011555    -0.57300
O1311       O  0.91630578  0.84938192  0.17494181    -0.55800
O1312       O  0.88970703  0.80842124  0.07714831    -0.55700
O1313       O  0.97384621  0.85705772  0.14212411    -0.54900
O1314       O  0.89193603  0.75582289  0.03638684    -0.56100
C1315       C  0.90350548  0.68094090  0.46191706     0.76500
O1316       O  0.98815101  0.71172260  0.01683497    -0.57300
C1317       C  0.91287652  0.76004123  0.05925825     0.76500
C1318       C  0.90012930  0.66469482  0.06512516     0.78900
Cd1319     Cd  0.92411817  0.70893976  0.02008350     1.37500
O1320       O  0.89061178  0.70696323  0.46981636    -0.56100
O1321       O  0.88048207  0.68502701  0.05298772    -0.54900
C1322       C  0.48860706  0.73686136  0.00110727     0.78800
O1323       O  0.93175878  0.66461976  0.05658147    -0.57300
O1324       O  0.92331639  0.66783690  0.48158056    -0.55800
O1325       O  0.93616629  0.73991858  0.06394431    -0.55700
O1326       O  0.95955495  0.74789222  0.49295551    -0.54900
O1327       O  0.62577250  0.67900389  0.33789371    -0.56100
C1328       C  0.60226461  0.69787065  0.41721295     0.76500
O1329       O  0.54177758  0.63939853  0.40130630    -0.57300
C1330       C  0.61358056  0.66395026  0.31484972     0.76500
C1331       C  0.63549196  0.59320264  0.40916221     0.78900
Cd1332     Cd  0.60035591  0.64375551  0.37829651     1.37500
O1333       O  0.57825546  0.69177132  0.39805496    -0.56100
O1334       O  0.65300783  0.61378210  0.39504148    -0.54900
C1335       C  0.52669612  0.63380623  0.37544226     0.78800
O1336       O  0.60297877  0.59443683  0.40595421    -0.57300
O1337       O  0.62705101  0.67874902  0.41885492    -0.55800
O1338       O  0.60111731  0.63747270  0.32088206    -0.55700
O1339       O  0.54586327  0.62969688  0.35165255    -0.54900
O1340       O  0.62152654  0.77947677  0.02244758    -0.56100
C1341       C  0.59999717  0.72582612  0.43631381     0.76500
O1342       O  0.52203005  0.77734832  0.47642605    -0.57300
C1343       C  0.61098390  0.80617571  0.03067295     0.76500
C1344       C  0.61084327  0.82244852  0.42669691     0.78900
Cd1345     Cd  0.58664035  0.77885908  0.47295217     1.37500
O1346       O  0.62003096  0.73153937  0.45944139    -0.56100
O1347       O  0.63021998  0.80233337  0.43948022    -0.54900
C1348       C  0.52125734  0.75246141  0.49253764     0.78800
O1349       O  0.57907223  0.82253126  0.43480903    -0.57300
O1350       O  0.57628402  0.74518173  0.43029588    -0.55800
O1351       O  0.59132631  0.82031152  0.01162323    -0.55700
O1352       O  0.55016612  0.74136978  0.00090008    -0.54900
O1353       O  0.83212882  0.94886019  0.35277492    -0.56100
C1354       C  0.86131525  0.91651589  0.43110565     0.76500
O1355       O  0.78827420  0.89283491  0.34374512    -0.57300
C1356       C  0.85232733  0.95077788  0.32948319     0.76500
C1357       C  0.88401765  0.84753591  0.33698305     0.78900
Cd1358     Cd  0.84658494  0.89676280  0.36786723     1.37500
O1359       O  0.86819744  0.93374004  0.40788062    -0.56100
O1360       O  0.90037083  0.86887434  0.35112785    -0.54900
C1361       C  0.77268137  0.88557657  0.36888253     0.78800
O1362       O  0.85142975  0.84735976  0.34015271    -0.57300
O1363       O  0.85331567  0.88866334  0.42501675    -0.55800
O1364       O  0.87122158  0.92755055  0.32368230    -0.55700
O1365       O  0.79135099  0.88109767  0.39289075    -0.54900
O1366       O  0.87084922  0.98148254  0.28543547    -0.56100
C1367       C  0.86172238  0.55827662  0.21318335     0.76500
O1368       O  0.77647078  0.52615113  0.26629499    -0.57300
C1369       C  0.85177974  0.97829899  0.30975619     0.76500
C1370       C  0.86578785  0.57368386  0.31524138     0.78900
Cd1371     Cd  0.84041512  0.52943195  0.27073627     1.37500
O1372       O  0.87539633  0.53271132  0.22152333    -0.56100
O1373       O  0.88530307  0.55450660  0.30112529    -0.54900
C1374       C  0.77653475  0.50100506  0.25054595     0.78800
O1375       O  0.83346748  0.57241548  0.30924106    -0.57300
O1376       O  0.84038285  0.57059262  0.23208705    -0.55800
O1377       O  0.83033755  0.49960136  0.31612616    -0.55700
O1378       O  0.80584674  0.49014437  0.24293436    -0.54900
O1379       O  0.63948405  0.55687598  0.08534515    -0.56100
C1380       C  0.66307669  0.53785285  0.16395303     0.76500
O1381       O  0.72103233  0.60817080  0.10085318    -0.57300
C1382       C  0.65209613  0.57138451  0.06216280     0.76500
C1383       C  0.63048624  0.64201651  0.15753347     0.78900
Cd1384     Cd  0.66566773  0.59200254  0.12534742     1.37500
O1385       O  0.68501993  0.54198657  0.14233629    -0.56100
O1386       O  0.61308443  0.62025432  0.14523172    -0.54900
C1387       C  0.73975563  0.60162176  0.12437421     0.78800
O1388       O  0.66258840  0.64237526  0.15161678    -0.57300
O1389       O  0.64060605  0.55882960  0.16791887    -0.55800
O1390       O  0.66463609  0.59792519  0.06778424    -0.55700
O1391       O  0.72411732  0.59329411  0.14917239    -0.54900
O1392       O  0.64470298  0.95653585  0.27080860    -0.56100
C1393       C  0.66538159  0.01024626  0.18355056     0.76500
O1394       O  0.74385933  0.96066278  0.22469293    -0.57300
C1395       C  0.65506900  0.92957436  0.27837978     0.76500
C1396       C  0.65452039  0.91398640  0.17602772     0.78900
Cd1397     Cd  0.67921867  0.95808989  0.22122448     1.37500
O1398       O  0.64600624  0.00537355  0.20733847    -0.56100
O1399       O  0.63512722  0.93382107  0.18925980    -0.54900
C1400       C  0.74415346  0.98514680  0.24145622     0.78800
O1401       O  0.68662625  0.91461000  0.18301443    -0.57300
O1402       O  0.68858720  0.99044766  0.17740741    -0.55800
O1403       O  0.67444661  0.91570799  0.25887777    -0.55700
O1404       O  0.71501878  0.99555817  0.25008190    -0.54900
O1405       O  0.87636701  0.55532832  0.15866761    -0.56100
C1406       C  0.85286295  0.53711937  0.07898484     0.76500
O1407       O  0.79329046  0.60018024  0.09608776    -0.57300
C1408       C  0.86640791  0.57162268  0.18169212     0.76500
C1409       C  0.88566882  0.64140664  0.08659954     0.78900
Cd1410     Cd  0.85163530  0.59083296  0.11851063     1.37500
O1411       O  0.82702330  0.54509174  0.09528200    -0.56100
O1412       O  0.90328302  0.61892316  0.09710548    -0.54900
C1413       C  0.77776344  0.60121904  0.12234292     0.78800
O1414       O  0.85398405  0.64204277  0.09403476    -0.57300
O1415       O  0.87957706  0.55401868  0.08069351    -0.55800
O1416       O  0.85615972  0.59882970  0.17553322    -0.55700
O1417       O  0.79650291  0.59965253  0.14671214    -0.54900
O1418       O  0.86971897  0.95578022  0.47059838    -0.56100
C1419       C  0.85071518  0.00951398  0.05936137     0.76500
O1420       O  0.77413179  0.95866232  0.02039689    -0.57300
C1421       C  0.85803431  0.92921824  0.46304308     0.76500
C1422       C  0.86612411  0.91406091  0.06631392     0.78900
Cd1423     Cd  0.83854194  0.95692979  0.02184353     1.37500
O1424       O  0.87201019  0.00353862  0.03721408    -0.56100
O1425       O  0.88454320  0.93431251  0.05259176    -0.54900
C1426       C  0.77323691  0.98269648  0.00296004     0.78800
O1427       O  0.83387666  0.91359570  0.05990144    -0.57300
O1428       O  0.82596164  0.99078836  0.06386142    -0.55800
O1429       O  0.83992295  0.91515161  0.48339001    -0.55700
O1430       O  0.80201387  0.99324816  0.49343848    -0.54900
O1431       O  0.68399236  0.94311585  0.39409903    -0.57700
C1432       C  0.64902442  0.91615052  0.30970383     0.76500
O1433       O  0.71602764  0.88239497  0.34641903    -0.57300
C1434       C  0.65963023  0.94911868  0.41294475     0.76500
C1435       C  0.62592983  0.84551550  0.40515814     0.78900
Cd1436     Cd  0.66103542  0.89576983  0.37307554     1.37500
O1437       O  0.63951156  0.93266719  0.33273472    -0.56100
O1438       O  0.60832740  0.86681708  0.39224698    -0.54900
C1439       C  0.73471886  0.88517291  0.37071165     0.78800
O1440       O  0.65819548  0.84585775  0.40009457    -0.57300
O1441       O  0.65738581  0.88839758  0.31576151    -0.55800
O1442       O  0.63401163  0.93081643  0.41303471    -0.55700
O1443       O  0.71913845  0.89000211  0.39646980    -0.54900
O1444       O  0.64302934  0.97978383  0.45776387    -0.56100
C1445       C  0.65653837  0.55670688  0.03118967     0.76500
O1446       O  0.74030053  0.52218333  0.47684717    -0.57300
C1447       C  0.66254358  0.97572568  0.43387035     0.76500
C1448       C  0.65111690  0.56992768  0.42994881     0.78900
Cd1449     Cd  0.67659053  0.52588253  0.47415486     1.37500
O1450       O  0.64284405  0.53077123  0.02405659    -0.56100
O1451       O  0.63180578  0.55050190  0.44390977    -0.54900
C1452       C  0.74061404  0.49799441  0.49402523     0.78800
O1453       O  0.68342686  0.56913151  0.43613602    -0.57300
O1454       O  0.67748999  0.56832306  0.01148624    -0.55800
O1455       O  0.68650255  0.49520386  0.42903022    -0.55700
O1456       O  0.71152564  0.48769007  0.00311218    -0.54900
O1457       O  0.89678974  0.78407691  0.72196854    -0.56100
C1458       C  0.91729279  0.72977360  0.80964340     0.76500
O1459       O  0.99456741  0.77843784  0.77019842    -0.57300
C1460       C  0.91040197  0.80957224  0.71338131     0.76500
C1461       C  0.90114333  0.82493801  0.81629036     0.78900
Cd1462     Cd  0.93003130  0.78194736  0.77210929     1.37500
O1463       O  0.89748906  0.73480479  0.78615053    -0.56100
O1464       O  0.88327988  0.80435558  0.80247204    -0.54900
C1465       C  0.99461546  0.75356332  0.75396372     0.78800
O1466       O  0.93344084  0.82583696  0.81007341    -0.57300
O1467       O  0.94063161  0.74953594  0.81571324    -0.55800
O1468       O  0.93109477  0.82247071  0.73248823    -0.55700
O1469       O  0.96543428  0.74332669  0.74515593    -0.54900
O1470       O  0.93911530  0.69573873  0.84805222    -0.56100
C1471       C  0.89979030  0.66770395  0.93027739     0.76500
O1472       O  0.91355389  0.59859309  0.83952963    -0.57300
C1473       C  0.91506684  0.70198623  0.82894825     0.76500
C1474       C  0.98884184  0.63500114  0.87260891     0.78900
Cd1475     Cd  0.91569753  0.64774635  0.86760675     1.37500
O1476       O  0.89040676  0.68393325  0.90700025    -0.56100
O1477       O  0.97425640  0.63856973  0.84615992    -0.54900
C1478       C  0.88110140  0.59719833  0.83602259     0.78800
O1479       O  0.96938948  0.63504386  0.89656496    -0.57300
O1480       O  0.91027967  0.64050189  0.92442543    -0.55800
O1481       O  0.89012826  0.68303751  0.82734060    -0.55700
O1482       O  0.86335191  0.61780111  0.84988740    -0.54900
O1483       O  0.58027492  0.79291420  0.64813491    -0.56100
C1484       C  0.61711798  0.81902834  0.56216932     0.76500
O1485       O  0.54917993  0.84783467  0.59629219    -0.57300
C1486       C  0.60536094  0.78627176  0.66593836     0.76500
C1487       C  0.63914094  0.89038614  0.65534167     0.78900
Cd1488     Cd  0.60396279  0.83925028  0.62509965     1.37500
O1489       O  0.62477804  0.80179674  0.58523377    -0.56100
O1490       O  0.65667475  0.86901565  0.64247403    -0.54900
C1491       C  0.53044195  0.85062943  0.62052109     0.78800
O1492       O  0.60673284  0.88957025  0.65115710    -0.57300
O1493       O  0.61033872  0.84712418  0.56826934    -0.55800
O1494       O  0.63141753  0.80404000  0.66498883    -0.55700
O1495       O  0.54590671  0.85076703  0.64680932    -0.54900
O1496       O  0.62403867  0.75394130  0.70903362    -0.56100
C1497       C  0.60966823  0.67785520  0.78342143     0.76500
O1498       O  0.52636173  0.71220005  0.72927697    -0.57300
C1499       C  0.60294551  0.75929667  0.68652263     0.76500
C1500       C  0.61531151  0.66473348  0.67938497     0.78900
Cd1501     Cd  0.59022474  0.70783290  0.72553121     1.37500
O1502       O  0.62352182  0.70357458  0.77581502    -0.56100
O1503       O  0.63474956  0.68410101  0.69329808    -0.54900
C1504       C  0.52677609  0.73709293  0.74544436     0.78800
O1505       O  0.58324928  0.66503163  0.68657449    -0.57300
O1506       O  0.58910446  0.66576226  0.76366577    -0.55800
O1507       O  0.57807873  0.74055217  0.68251640    -0.55700
O1508       O  0.55620829  0.74722368  0.75377338    -0.54900
O1509       O  0.93636128  0.79135069  0.59913290    -0.56100
C1510       C  0.90599691  0.82231999  0.68160453     0.76500
O1511       O  0.97682243  0.84288610  0.59359769    -0.57300
C1512       C  0.91243399  0.78740364  0.57925603     0.76500
C1513       C  0.88258313  0.89120247  0.58702535     0.78900
Cd1514     Cd  0.91852625  0.84122503  0.61783964     1.37500
O1515       O  0.89562393  0.80577409  0.65892141    -0.56100
O1516       O  0.86561785  0.87027793  0.60116149    -0.54900
C1517       C  0.99248115  0.85094667  0.61848401     0.78800
O1518       O  0.91515524  0.89062020  0.59011899    -0.57300
O1519       O  0.91628077  0.84938934  0.67494827    -0.55800
O1520       O  0.88969064  0.80839821  0.57718589    -0.55700
O1521       O  0.97383752  0.85701432  0.64216642    -0.54900
O1522       O  0.89193456  0.75581090  0.53641100    -0.56100
C1523       C  0.90350554  0.68093447  0.96191103     0.76500
O1524       O  0.98815884  0.71172363  0.51683933    -0.57300
C1525       C  0.91289040  0.76003997  0.55926866     0.76500
C1526       C  0.90014196  0.66469704  0.56513453     0.78900
Cd1527     Cd  0.92412716  0.70894027  0.52009080     1.37500
O1528       O  0.89059497  0.70694924  0.96981374    -0.56100
O1529       O  0.88049839  0.68503962  0.55301051    -0.54900
C1530       C  0.48859927  0.73685468  0.50109661     0.78800
O1531       O  0.93176716  0.66461165  0.55657760    -0.57300
O1532       O  0.92332971  0.66784053  0.98157044    -0.55800
O1533       O  0.93619649  0.73992879  0.56394024    -0.55700
O1534       O  0.95955013  0.74789132  0.99294916    -0.54900
O1535       O  0.62576883  0.67900940  0.83789193    -0.56100
C1536       C  0.60225840  0.69787815  0.91720652     0.76500
O1537       O  0.54176961  0.63939599  0.90130439    -0.57300
C1538       C  0.61357594  0.66395667  0.81484757     0.76500
C1539       C  0.63548261  0.59320982  0.90915576     0.78900
Cd1540     Cd  0.60034585  0.64376307  0.87829218     1.37500
O1541       O  0.57824829  0.69178167  0.89804840    -0.56100
O1542       O  0.65299836  0.61378387  0.89502678    -0.54900
C1543       C  0.52668659  0.63380891  0.87544002     0.78800
O1544       O  0.60296869  0.59444943  0.90595681    -0.57300
O1545       O  0.62704265  0.67875442  0.91884788    -0.55800
O1546       O  0.60110703  0.63748127  0.82087953    -0.55700
O1547       O  0.54585201  0.62970949  0.85164739    -0.54900
O1548       O  0.62153340  0.77948760  0.52243673    -0.56100
C1549       C  0.59999437  0.72583189  0.93630981     0.76500
O1550       O  0.52203672  0.77735617  0.97643781    -0.57300
C1551       C  0.61098037  0.80618190  0.53066658     0.76500
C1552       C  0.61084906  0.82244994  0.92670322     0.78900
Cd1553     Cd  0.58664607  0.77886006  0.97295610     1.37500
O1554       O  0.62003187  0.73154184  0.95943568    -0.56100
O1555       O  0.63022640  0.80233461  0.93948568    -0.54900
C1556       C  0.52126449  0.75246791  0.99254743     0.78800
O1557       O  0.57907815  0.82253282  0.93481589    -0.57300
O1558       O  0.57628093  0.74518869  0.93029685    -0.55800
O1559       O  0.59130644  0.82030942  0.51162433    -0.55700
O1560       O  0.55015894  0.74136604  0.50089454    -0.54900
O1561       O  0.83211726  0.94886047  0.85277175    -0.56100
C1562       C  0.86131690  0.91652205  0.93110037     0.76500
O1563       O  0.78827286  0.89281785  0.84374465    -0.57300
C1564       C  0.85231935  0.95078237  0.82948301     0.76500
C1565       C  0.88401960  0.84753901  0.83698434     0.78900
Cd1566     Cd  0.84658363  0.89676542  0.86786488     1.37500
O1567       O  0.86819196  0.93374778  0.90787495    -0.56100
O1568       O  0.90037160  0.86887576  0.85113279    -0.54900
C1569       C  0.77268110  0.88557457  0.86888719     0.78800
O1570       O  0.85143099  0.84736474  0.84014817    -0.57300
O1571       O  0.85332548  0.88866721  0.92501226    -0.55800
O1572       O  0.87121807  0.92755779  0.82368295    -0.55700
O1573       O  0.79135160  0.88111094  0.89289764    -0.54900
O1574       O  0.87084042  0.98148846  0.78543704    -0.56100
C1575       C  0.86172232  0.55827599  0.71318243     0.76500
O1576       O  0.77646904  0.52615704  0.76629808    -0.57300
C1577       C  0.85177193  0.97830502  0.80975831     0.76500
C1578       C  0.86579123  0.57368748  0.81523820     0.78900
Cd1579     Cd  0.84041311  0.52943578  0.77073711     1.37500
O1580       O  0.87539234  0.53270957  0.72152366    -0.56100
O1581       O  0.88530468  0.55451341  0.80111584    -0.54900
C1582       C  0.77653202  0.50101062  0.75054960     0.78800
O1583       O  0.83346916  0.57241662  0.80924590    -0.57300
O1584       O  0.84038465  0.57059565  0.73208563    -0.55800
O1585       O  0.83033651  0.49960333  0.81612738    -0.55700
O1586       O  0.80584336  0.49015009  0.74293575    -0.54900
O1587       O  0.63950556  0.55685257  0.58535538    -0.56100
C1588       C  0.66308169  0.53785530  0.66396775     0.76500
O1589       O  0.72103476  0.60817130  0.60085734    -0.57300
C1590       C  0.65210635  0.57136425  0.56217009     0.76500
C1591       C  0.63049158  0.64201239  0.65753432     0.78900
Cd1592     Cd  0.66567318  0.59199584  0.62535262     1.37500
O1593       O  0.68504377  0.54199875  0.64236881    -0.56100
O1594       O  0.61308981  0.62024933  0.64523411    -0.54900
C1595       C  0.73976053  0.60161794  0.62437548     0.78800
O1596       O  0.66259400  0.64236974  0.65161919    -0.57300
O1597       O  0.64059193  0.55881965  0.66791298    -0.55800
O1598       O  0.66463540  0.59790966  0.56778814    -0.55700
O1599       O  0.72412473  0.59328522  0.64917350    -0.54900
O1600       O  0.64470439  0.95654522  0.77082096    -0.56100
C1601       C  0.66538463  0.01025164  0.68356252     0.76500
O1602       O  0.74385185  0.96066819  0.72470361    -0.57300
C1603       C  0.65506522  0.92958162  0.77839014     0.76500
C1604       C  0.65452092  0.91399446  0.67602750     0.78900
Cd1605     Cd  0.67921314  0.95809445  0.72123354     1.37500
O1606       O  0.64599535  0.00537213  0.70733995    -0.56100
O1607       O  0.63512626  0.93383236  0.68925308    -0.54900
C1608       C  0.74414582  0.98515325  0.74146539     0.78800
O1609       O  0.68662401  0.91461406  0.68302469    -0.57300
O1610       O  0.68860104  0.99046023  0.67742985    -0.55800
O1611       O  0.67443502  0.91571128  0.75888472    -0.55700
O1612       O  0.71501141  0.99556448  0.75009188    -0.54900
O1613       O  0.87636517  0.55532270  0.65866650    -0.56100
C1614       C  0.85287638  0.53712221  0.57897829     0.76500
O1615       O  0.79329367  0.60017107  0.59608568    -0.57300
C1616       C  0.86641037  0.57161977  0.68169059     0.76500
C1617       C  0.88568056  0.64140801  0.58660710     0.78900
Cd1618     Cd  0.85164155  0.59083268  0.61850904     1.37500
O1619       O  0.82703666  0.54509083  0.59527734    -0.56100
O1620       O  0.90328918  0.61891397  0.59709694    -0.54900
C1621       C  0.77776838  0.60121615  0.62234170     0.78800
O1622       O  0.85399942  0.64205330  0.59405491    -0.57300
O1623       O  0.87958751  0.55402555  0.58068497    -0.55800
O1624       O  0.85616904  0.59882842  0.67553083    -0.55700
O1625       O  0.79650980  0.59965697  0.64670991    -0.54900
O1626       O  0.86971269  0.95578634  0.97059526    -0.56100
C1627       C  0.85072851  0.00951905  0.55936135     0.76500
O1628       O  0.77414497  0.95865706  0.52039659    -0.57300
C1629       C  0.85803176  0.92922342  0.96303784     0.76500
C1630       C  0.86613214  0.91406297  0.56631988     0.78900
Cd1631     Cd  0.83855424  0.95693094  0.52184811     1.37500
O1632       O  0.87201900  0.00354676  0.53720959    -0.56100
O1633       O  0.88455516  0.93430668  0.55259021    -0.54900
C1634       C  0.77324928  0.98269308  0.50296248     0.78800
O1635       O  0.83388284  0.91360569  0.55991436    -0.57300
O1636       O  0.82598156  0.99078814  0.56386840    -0.55800
O1637       O  0.83991948  0.91515471  0.98338232    -0.55700
O1638       O  0.80200186  0.99324644  0.99343068    -0.54900
O1639       O  0.68400016  0.94310802  0.89412487    -0.57700
C1640       C  0.64902411  0.91615932  0.80971517     0.76500
O1641       O  0.71602584  0.88239362  0.84642665    -0.57300
C1642       C  0.65962793  0.94911919  0.91295724     0.76500
C1643       C  0.62593439  0.84551747  0.90516493     0.78900
Cd1644     Cd  0.66103673  0.89577321  0.87308511     1.37500
O1645       O  0.63952289  0.93267867  0.83274788    -0.56100
O1646       O  0.60833139  0.86682090  0.89225782    -0.54900
C1647       C  0.73471867  0.88517230  0.87071814     0.78800
O1648       O  0.65819940  0.84585868  0.90009829    -0.57300
O1649       O  0.65737706  0.88840401  0.81577116    -0.55800
O1650       O  0.63400255  0.93082439  0.91303516    -0.55700
O1651       O  0.71914027  0.89000455  0.89647682    -0.54900
O1652       O  0.64301710  0.97979213  0.95776829    -0.56100
C1653       C  0.65654651  0.55668751  0.53119623     0.76500
O1654       O  0.74029397  0.52219130  0.97684077    -0.57300
C1655       C  0.66253685  0.97572921  0.93387918     0.76500
C1656       C  0.65110865  0.56993520  0.92994191     0.78900
Cd1657     Cd  0.67658306  0.52589460  0.97415246     1.37500
O1658       O  0.64286272  0.53074647  0.52406683    -0.56100
O1659       O  0.63179811  0.55051035  0.94390470    -0.54900
C1660       C  0.74060606  0.49800597  0.99402431     0.78800
O1661       O  0.68341885  0.56913896  0.93612769    -0.57300
O1662       O  0.67748559  0.56831211  0.51148702    -0.55800
O1663       O  0.68650099  0.49520542  0.92903785    -0.55700
O1664       O  0.71153391  0.48767232  0.50310678    -0.54900
loop_ 
_geom_bond_atom_site_label_1 
_geom_bond_atom_site_label_2 
_geom_bond_distance 
_geom_bond_site_symmetry_2 
_ccdc_geom_bond_type 
O1            C4   1.272       .  A
O1           Cd6   2.488       .  S
C2           O11   1.266       .  A
C2            O7   1.275       .  A
C2           C17   1.455       .  S
O3            C9   1.276       .  A
O3           Cd6   2.494       .  S
C4           O12   1.267       .  A
C4           C54   1.468       .  S
C5           O10   1.273       .  A
C5            O8   1.268       .  A
C5          C109   1.470       .  S
Cd6          O13   2.439       .  S
Cd6          O12   2.427       .  S
Cd6          O11   2.357       .  S
Cd6           O7   2.463       .  S
Cd6          O10   2.491       .  S
Cd6           O8   2.418       .  S
C9           O13   1.265       .  A
C9          C880   1.474       .  S
O14          C17   1.261       .  A
O14         Cd19   2.407       .  S
C15          O24   1.266       .  A
C15          O20   1.265       .  A
C15          C67   1.467       .  S
O16          C22   1.261       .  A
O16         Cd19   2.434       .  S
C17          O25   1.264       .  A
C18          O23   1.264       .  A
C18          O21   1.266       .  A
C18         C919   1.465       .  S
Cd19         O26   2.511       .  S
Cd19         O25   2.493       .  S
Cd19         O24   2.443       .  S
Cd19         O20   2.488       .  S
Cd19         O23   2.470       .  S
Cd19         O21   2.466       .  S
C22          O26   1.267       .  A
C22         C122   1.469       .  S
O27          C30   1.261       .  A
O27         Cd32   2.406       .  S
C28          O37   1.267       .  A
C28          O33   1.265       .  A
C28          C95   1.468       .  S
O29          C35   1.263       .  A
O29         Cd32   2.469       .  S
C30          O38   1.264       .  A
C30          C43   1.459       .  S
C31          O36   1.262       .  A
C31          O34   1.267       .  A
C31         C148   1.470       .  S
Cd32         O39   2.471       .  S
Cd32         O38   2.510       .  S
Cd32         O37   2.451       .  S
Cd32         O33   2.475       .  S
Cd32         O36   2.439       .  S
Cd32         O34   2.514       .  S
C35          O39   1.266       .  A
C35         C893   1.466   1_455  S
O40          C43   1.277       .  A
O40         Cd45   2.479       .  S
C41          O50   1.267       .  A
C41          O46   1.273       .  A
C41          C82   1.471       .  S
O42          C48   1.275       .  A
O42         Cd45   2.474       .  S
C43          O51   1.266       .  A
C44          O49   1.273       .  A
C44          O47   1.268       .  A
C44         C135   1.472       .  S
Cd45         O52   2.459       .  S
Cd45         O51   2.356       .  S
Cd45         O50   2.433       .  S
Cd45         O46   2.499       .  S
Cd45         O49   2.494       .  S
Cd45         O47   2.423       .  S
C48          O52   1.266       .  A
C48         C841   1.474   1_455  S
O53          C56   1.262       .  A
O53         Cd58   2.395       .  S
C54          O63   1.265       .  A
C54          O59   1.264       .  A
O55          C61   1.266       .  A
O55         Cd58   2.473       .  S
C56          O64   1.264       .  A
C56          C69   1.454       .  S
C57          O62   1.263       .  A
C57          O60   1.266       .  A
C57         C174   1.466       .  S
Cd58         O65   2.465       .  S
Cd58         O64   2.495       .  S
Cd58         O63   2.453       .  S
Cd58         O59   2.483       .  S
Cd58         O62   2.438       .  S
Cd58         O60   2.497       .  S
C61          O65   1.264       .  A
C61         C867   1.466       .  S
O66          C69   1.276       .  A
O66         Cd71   2.472       .  S
C67          O76   1.265       .  A
C67          O72   1.273       .  A
O68         C906   1.274       .  A
O68         Cd71   2.475       .  S
C69          O77   1.265       .  A
C70          O75   1.272       .  A
C70          O73   1.269       .  A
C70         C161   1.467       .  S
Cd71         O77   2.340       .  S
Cd71         O75   2.479       .  S
Cd71         O73   2.418       .  S
Cd71        O286   2.453   1_554  S
Cd71        O284   2.413   1_554  S
Cd71        O280   2.498   1_554  S
O72        Cd279   2.498       .  S
C74         O900   1.274       .  A
C74        O1118   1.265   1_554  A
C74         C308   1.473   1_654  S
O76        Cd279   2.413       .  S
O78        C1114   1.265       .  A
O78        Cd279   2.453       .  S
O79          C82   1.265       .  A
O79         Cd84   2.494       .  S
C80          O89   1.264       .  A
C80          O85   1.260       .  A
C80          C93   1.456       .  S
O81          C87   1.266       .  A
O81         Cd84   2.468       .  S
C82          O90   1.265       .  A
C83          O88   1.262       .  A
C83          O86   1.266       .  A
C83         C200   1.467       .  S
Cd84         O91   2.462       .  S
Cd84         O90   2.455       .  S
Cd84         O89   2.511       .  S
Cd84         O85   2.392       .  S
Cd84         O88   2.433       .  S
Cd84         O86   2.510       .  S
C87          O91   1.265       .  A
C87         C850   1.465   1_455  S
O92          C95   1.270       .  A
O92        Cd305   2.496   1_554  S
C93         O102   1.264       .  A
C93          O98   1.274       .  A
O94         C100   1.274       .  A
O94         Cd97   2.496       .  S
C95         O103   1.266       .  A
C96         O101   1.272       .  A
C96          O99   1.267       .  A
C96         C187   1.472       .  S
Cd97        O102   2.357       .  S
Cd97         O98   2.481       .  S
Cd97        O101   2.502       .  S
Cd97         O99   2.423       .  S
Cd97        O300   2.496       .  S
Cd97        O312   2.450       .  S
Cd97        O311   2.435       .  S
C100        O312   1.264       .  A
C100        C282   1.473   1_455  S
O103       Cd305   2.435   1_554  S
O104        C308   1.264   1_554  A
O104       Cd305   2.450   1_554  S
O105        C108   1.262       .  A
O105       Cd110   2.403       .  S
C106        O115   1.267       .  A
C106        O111   1.263       .  A
C106        C173   1.469       .  S
O107        C113   1.265       .  A
O107       Cd110   2.476       .  S
C108        O116   1.263       .  A
C108        C121   1.454       .  S
C109        O114   1.263       .  A
C109        O112   1.267       .  A
Cd110       O117   2.474       .  S
Cd110       O116   2.488       .  S
Cd110       O115   2.467       .  S
Cd110       O111   2.476       .  S
Cd110       O114   2.442       .  S
Cd110       O112   2.501       .  S
C113        O117   1.263       .  A
C113        C191   1.466       .  S
O118        C121   1.276       .  A
O118       Cd539   2.459       .  S
C119        O128   1.267       .  A
C119        O124   1.273       .  A
C119        C160   1.468       .  S
O120        C126   1.275       .  A
O120       Cd123   2.476       .  S
C121        O545   1.265       .  A
C122        O127   1.273       .  A
C122        O125   1.269       .  A
Cd123       O130   2.458   1_545  S
Cd123       O129   2.351   1_545  S
Cd123       O128   2.419       .  S
Cd123       O124   2.492       .  S
Cd123       O127   2.487       .  S
Cd123       O125   2.415       .  S
Cd123       O534   2.459   1_545  S
C126        O130   1.265   1_545  A
C126        C568   1.475   1_545  S
O129        C537   1.265       .  A
O131        C134   1.264       .  A
O131       Cd136   2.491       .  S
C132        O141   1.264       .  A
C132        O137   1.261       .  A
C132        C561   1.456       .  S
O133        C139   1.265       .  A
O133       Cd136   2.475       .  S
C134        O142   1.266       .  A
C134        C197   1.470       .  S
C135        O140   1.263       .  A
C135        O138   1.267       .  A
Cd136       O143   2.471       .  S
Cd136       O142   2.459       .  S
Cd136       O141   2.501       .  S
Cd136       O137   2.394       .  S
Cd136       O140   2.446       .  S
Cd136       O138   2.512       .  S
C139        O143   1.266       .  A
C139        C165   1.468       .  S
O144        C147   1.271       .  A
O144       Cd149   2.493       .  S
C145        O154   1.264       .  A
C145        O150   1.274       .  A
C145        C548   1.456       .  S
O146        C152   1.274       .  A
O146       Cd149   2.499       .  S
C147        O155   1.266       .  A
C147        C184   1.470       .  S
C148        O153   1.273       .  A
C148        O151   1.268       .  A
Cd149       O156   2.454       .  S
Cd149       O155   2.437       .  S
Cd149       O154   2.355       .  S
Cd149       O150   2.480       .  S
Cd149       O153   2.497       .  S
Cd149       O151   2.415       .  S
C152        O156   1.264       .  A
C152        C542   1.475       .  S
O157        C160   1.264       .  A
O157       Cd162   2.483       .  S
C158        O167   1.264       .  A
C158        O163   1.261       .  A
C158        C587   1.456       .  S
O159        C165   1.267       .  A
O159       Cd162   2.476       .  S
C160        O168   1.266       .  A
C161        O166   1.262       .  A
C161        O164   1.265       .  A
Cd162       O169   2.469       .  S
Cd162       O168   2.453       .  S
Cd162       O167   2.503       .  S
Cd162       O163   2.402       .  S
Cd162       O166   2.443       .  S
Cd162       O164   2.502       .  S
C165        O169   1.264       .  A
O170        C173   1.272       .  A
O170       Cd383   2.488       .  S
C171        O180   1.265       .  A
C171        O176   1.275       .  A
C171        C574   1.456       .  S
O172        C178   1.275       .  A
O172       Cd175   2.485       .  S
C173        O181   1.266       .  A
C174        O179   1.273       .  A
C174        O177   1.268       .  A
Cd175       O180   2.357       .  S
Cd175       O176   2.477       .  S
Cd175       O179   2.478       .  S
Cd175       O177   2.409       .  S
Cd175       O378   2.488   1_554  S
Cd175       O390   2.428   1_554  S
Cd175       O389   2.433   1_554  S
C178        O390   1.265   1_554  A
C178        C828   1.471   1_554  S
O181       Cd383   2.433       .  S
O182        C386   1.265       .  A
O182       Cd383   2.428       .  S
O183        C186   1.261       .  A
O183       Cd188   2.398       .  S
C184        O193   1.266       .  A
C184        O189   1.265       .  A
O185        C191   1.264       .  A
O185       Cd188   2.472       .  S
C186        O194   1.264       .  A
C186        C199   1.456       .  S
C187        O192   1.262       .  A
C187        O190   1.267       .  A
Cd188       O195   2.463       .  S
Cd188       O194   2.501       .  S
Cd188       O193   2.460       .  S
Cd188       O189   2.482       .  S
Cd188       O192   2.443       .  S
Cd188       O190   2.520       .  S
C191        O195   1.266       .  A
O196        C199   1.276       .  A
O196       Cd617   2.473       .  S
C197        O206   1.267       .  A
C197        O202   1.274       .  A
O198        C204   1.274   1_545  A
O198       Cd201   2.464       .  S
C199        O623   1.265       .  A
C200        O205   1.273       .  A
C200        O203   1.268       .  A
Cd201       O207   2.361   1_545  S
Cd201       O205   2.482       .  S
Cd201       O203   2.400       .  S
Cd201       O612   2.473   1_545  S
Cd201       O416   2.459   1_545  S
Cd201       O414   2.422       .  S
Cd201       O410   2.496       .  S
O202       Cd409   2.496   1_554  S
C204        O416   1.266       .  A
C204        C802   1.471       .  S
O206       Cd409   2.422   1_554  S
O207        C615   1.265       .  A
O208        C412   1.266   1_554  A
O208       Cd409   2.459   1_564  S
O209        C212   1.272       .  A
O209       Cd214   2.488       .  S
C210        O219   1.266       .  A
C210        O215   1.275       .  A
C210        C225   1.455       .  S
O211        C217   1.276       .  A
O211       Cd214   2.494       .  S
C212        O220   1.267       .  A
C212        C262   1.468       .  S
C213        O218   1.273       .  A
C213        O216   1.268       .  A
C213        C317   1.470       .  S
Cd214       O221   2.439       .  S
Cd214       O220   2.427       .  S
Cd214       O219   2.357       .  S
Cd214       O215   2.463       .  S
Cd214       O218   2.491       .  S
Cd214       O216   2.418       .  S
C217        O221   1.265       .  A
C217       C1088   1.474       .  S
O222        C225   1.261       .  A
O222       Cd227   2.407       .  S
C223        O232   1.266       .  A
C223        O228   1.265       .  A
C223        C275   1.467       .  S
O224        C230   1.261       .  A
O224       Cd227   2.435       .  S
C225        O233   1.264       .  A
C226        O231   1.264       .  A
C226        O229   1.266       .  A
C226       C1127   1.465       .  S
Cd227       O234   2.511       .  S
Cd227       O233   2.494       .  S
Cd227       O232   2.443       .  S
Cd227       O228   2.488       .  S
Cd227       O231   2.470       .  S
Cd227       O229   2.466       .  S
C230        O234   1.267       .  A
C230        C330   1.469       .  S
O235        C238   1.261       .  A
O235       Cd240   2.406       .  S
C236        O245   1.267       .  A
C236        O241   1.265       .  A
C236        C303   1.468       .  S
O237        C243   1.263       .  A
O237       Cd240   2.469       .  S
C238        O246   1.264       .  A
C238        C251   1.459       .  S
C239        O244   1.262       .  A
C239        O242   1.267       .  A
C239        C356   1.470       .  S
Cd240       O247   2.471       .  S
Cd240       O246   2.510       .  S
Cd240       O245   2.451       .  S
Cd240       O241   2.475       .  S
Cd240       O244   2.439       .  S
Cd240       O242   2.514       .  S
C243        O247   1.266       .  A
C243       C1101   1.466   1_455  S
O248        C251   1.277       .  A
O248       Cd253   2.479       .  S
C249        O258   1.267       .  A
C249        O254   1.273       .  A
C249        C290   1.472       .  S
O250        C256   1.275       .  A
O250       Cd253   2.474       .  S
C251        O259   1.266       .  A
C252        O257   1.273       .  A
C252        O255   1.268       .  A
C252        C343   1.472       .  S
Cd253       O260   2.459       .  S
Cd253       O259   2.356       .  S
Cd253       O258   2.433       .  S
Cd253       O254   2.499       .  S
Cd253       O257   2.494       .  S
Cd253       O255   2.423       .  S
C256        O260   1.266       .  A
C256       C1049   1.474   1_455  S
O261        C264   1.262       .  A
O261       Cd266   2.395       .  S
C262        O271   1.265       .  A
C262        O267   1.264       .  A
O263        C269   1.266       .  A
O263       Cd266   2.473       .  S
C264        O272   1.264       .  A
C264        C277   1.454       .  S
C265        O270   1.263       .  A
C265        O268   1.266       .  A
C265        C382   1.466       .  S
Cd266       O273   2.466       .  S
Cd266       O272   2.495       .  S
Cd266       O271   2.454       .  S
Cd266       O267   2.483       .  S
Cd266       O270   2.438       .  S
Cd266       O268   2.497       .  S
C269        O273   1.264       .  A
C269       C1075   1.466       .  S
O274        C277   1.276       .  A
O274       Cd279   2.472       .  S
C275        O284   1.265       .  A
C275        O280   1.273       .  A
O276       C1114   1.274       .  A
O276       Cd279   2.475       .  S
C277        O285   1.265       .  A
C278        O283   1.272       .  A
C278        O281   1.269       .  A
C278        C369   1.467       .  S
Cd279       O285   2.340       .  S
Cd279       O283   2.479       .  S
Cd279       O281   2.418       .  S
C282       O1108   1.274       .  A
C282        O910   1.265       .  A
O286        C906   1.265   1_556  A
O287        C290   1.265       .  A
O287       Cd292   2.494       .  S
C288        O297   1.264       .  A
C288        O293   1.260       .  A
C288        C301   1.456       .  S
O289        C295   1.266       .  A
O289       Cd292   2.468       .  S
C290        O298   1.265       .  A
C291        O296   1.262       .  A
C291        O294   1.266       .  A
C291        C408   1.467       .  S
Cd292       O299   2.462       .  S
Cd292       O298   2.455       .  S
Cd292       O297   2.511       .  S
Cd292       O293   2.392       .  S
Cd292       O296   2.433       .  S
Cd292       O294   2.510       .  S
C295        O299   1.265       .  A
C295       C1058   1.465   1_455  S
O300        C303   1.270       .  A
C301        O310   1.264       .  A
C301        O306   1.274       .  A
O302        C308   1.274       .  A
O302       Cd305   2.496       .  S
C303        O311   1.266       .  A
C304        O309   1.272       .  A
C304        O307   1.267       .  A
C304        C395   1.472       .  S
Cd305       O310   2.357       .  S
Cd305       O306   2.481       .  S
Cd305       O309   2.502       .  S
Cd305       O307   2.423       .  S
O313        C316   1.262       .  A
O313       Cd318   2.403       .  S
C314        O323   1.267       .  A
C314        O319   1.263       .  A
C314        C381   1.469       .  S
O315        C321   1.265       .  A
O315       Cd318   2.476       .  S
C316        O324   1.263       .  A
C316        C329   1.454       .  S
C317        O322   1.263       .  A
C317        O320   1.267       .  A
Cd318       O325   2.474       .  S
Cd318       O324   2.488       .  S
Cd318       O323   2.467       .  S
Cd318       O319   2.476       .  S
Cd318       O322   2.442       .  S
Cd318       O320   2.501       .  S
C321        O325   1.263       .  A
C321        C399   1.466       .  S
O326        C329   1.276       .  A
O326       Cd747   2.459       .  S
C327        O336   1.267       .  A
C327        O332   1.273       .  A
C327        C368   1.468       .  S
O328        C334   1.275       .  A
O328       Cd331   2.476       .  S
C329        O753   1.265       .  A
C330        O335   1.273       .  A
C330        O333   1.269       .  A
Cd331       O742   2.459   1_545  S
Cd331       O338   2.458   1_545  S
Cd331       O337   2.351   1_545  S
Cd331       O336   2.419       .  S
Cd331       O332   2.492       .  S
Cd331       O335   2.487       .  S
Cd331       O333   2.415       .  S
C334        O338   1.265   1_545  A
C334        C776   1.475   1_545  S
O337        C745   1.265       .  A
O339        C342   1.264       .  A
O339       Cd344   2.491       .  S
C340        O349   1.264       .  A
C340        O345   1.261       .  A
C340        C769   1.456       .  S
O341        C347   1.265       .  A
O341       Cd344   2.475       .  S
C342        O350   1.266       .  A
C342        C405   1.470       .  S
C343        O348   1.263       .  A
C343        O346   1.267       .  A
Cd344       O351   2.471       .  S
Cd344       O350   2.459       .  S
Cd344       O349   2.501       .  S
Cd344       O345   2.395       .  S
Cd344       O348   2.446       .  S
Cd344       O346   2.512       .  S
C347        O351   1.266       .  A
C347        C373   1.468       .  S
O352        C355   1.271       .  A
O352       Cd357   2.493       .  S
C353        O362   1.264       .  A
C353        O358   1.274       .  A
C353        C756   1.456       .  S
O354        C360   1.274       .  A
O354       Cd357   2.499       .  S
C355        O363   1.266       .  A
C355        C392   1.470       .  S
C356        O361   1.273       .  A
C356        O359   1.268       .  A
Cd357       O364   2.454       .  S
Cd357       O363   2.436       .  S
Cd357       O362   2.355       .  S
Cd357       O358   2.480       .  S
Cd357       O361   2.497       .  S
Cd357       O359   2.414       .  S
C360        O364   1.264       .  A
C360        C750   1.475       .  S
O365        C368   1.264       .  A
O365       Cd370   2.483       .  S
C366        O375   1.264       .  A
C366        O371   1.261       .  A
C366        C795   1.456       .  S
O367        C373   1.267       .  A
O367       Cd370   2.476       .  S
C368        O376   1.266       .  A
C369        O374   1.262       .  A
C369        O372   1.265       .  A
Cd370       O377   2.469       .  S
Cd370       O376   2.453       .  S
Cd370       O375   2.503       .  S
Cd370       O371   2.402       .  S
Cd370       O374   2.444       .  S
Cd370       O372   2.502       .  S
C373        O377   1.264       .  A
O378        C381   1.272       .  A
C379        O388   1.265       .  A
C379        O384   1.275       .  A
C379        C782   1.456       .  S
O380        C386   1.275       .  A
O380       Cd383   2.485       .  S
C381        O389   1.266       .  A
C382        O387   1.273       .  A
C382        O385   1.268       .  A
Cd383       O388   2.357       .  S
Cd383       O384   2.477       .  S
Cd383       O387   2.478       .  S
Cd383       O385   2.409       .  S
C386        C620   1.471       .  S
O391        C394   1.261       .  A
O391       Cd396   2.398       .  S
C392        O401   1.266       .  A
C392        O397   1.265       .  A
O393        C399   1.264       .  A
O393       Cd396   2.472       .  S
C394        O402   1.264       .  A
C394        C407   1.456       .  S
C395        O400   1.262       .  A
C395        O398   1.267       .  A
Cd396       O403   2.463       .  S
Cd396       O402   2.501       .  S
Cd396       O401   2.460       .  S
Cd396       O397   2.482       .  S
Cd396       O400   2.443       .  S
Cd396       O398   2.520       .  S
C399        O403   1.266       .  A
O404        C407   1.276       .  A
O404       Cd825   2.473       .  S
C405        O414   1.267       .  A
C405        O410   1.274       .  A
O406        C412   1.274   1_545  A
O406       Cd409   2.464       .  S
C407        O831   1.265       .  A
C408        O413   1.273       .  A
C408        O411   1.268       .  A
Cd409       O820   2.473   1_545  S
Cd409       O415   2.361   1_545  S
Cd409       O413   2.482       .  S
Cd409       O411   2.400       .  S
C412        C594   1.471   1_556  S
O415        C823   1.265       .  A
O417        C420   1.272       .  A
O417       Cd422   2.488       .  S
C418        O427   1.266       .  A
C418        O423   1.275       .  A
C418        C433   1.455       .  S
O419        C425   1.276       .  A
O419       Cd422   2.494       .  S
C420        O428   1.267       .  A
C420        C470   1.468       .  S
C421        O426   1.273       .  A
C421        O424   1.268       .  A
C421        C525   1.470       .  S
Cd422       O429   2.439       .  S
Cd422       O428   2.427       .  S
Cd422       O427   2.357       .  S
Cd422       O423   2.463       .  S
Cd422       O426   2.491       .  S
Cd422       O424   2.418       .  S
C425        O429   1.265       .  A
C425       C1296   1.474       .  S
O430        C433   1.261       .  A
O430       Cd435   2.407       .  S
C431        O440   1.266       .  A
C431        O436   1.265       .  A
C431        C483   1.467       .  S
O432        C438   1.261       .  A
O432       Cd435   2.434       .  S
C433        O441   1.264       .  A
C434        O439   1.264       .  A
C434        O437   1.266       .  A
C434       C1335   1.465       .  S
Cd435       O442   2.511       .  S
Cd435       O441   2.493       .  S
Cd435       O440   2.443       .  S
Cd435       O436   2.488       .  S
Cd435       O439   2.470       .  S
Cd435       O437   2.466       .  S
C438        O442   1.267       .  A
C438        C538   1.469       .  S
O443        C446   1.261       .  A
O443       Cd448   2.406       .  S
C444        O453   1.267       .  A
C444        O449   1.265       .  A
C444        C511   1.468       .  S
O445        C451   1.263       .  A
O445       Cd448   2.469       .  S
C446        O454   1.264       .  A
C446        C459   1.459       .  S
C447        O452   1.262       .  A
C447        O450   1.267       .  A
C447        C564   1.470       .  S
Cd448       O455   2.471       .  S
Cd448       O454   2.510       .  S
Cd448       O453   2.451       .  S
Cd448       O449   2.475       .  S
Cd448       O452   2.439       .  S
Cd448       O450   2.514       .  S
C451        O455   1.266       .  A
C451       C1309   1.466   1_455  S
O456        C459   1.277       .  A
O456       Cd461   2.479       .  S
C457        O466   1.267       .  A
C457        O462   1.273       .  A
C457        C498   1.471       .  S
O458        C464   1.275       .  A
O458       Cd461   2.474       .  S
C459        O467   1.266       .  A
C460        O465   1.273       .  A
C460        O463   1.268       .  A
C460        C551   1.472       .  S
Cd461       O468   2.459       .  S
Cd461       O467   2.356       .  S
Cd461       O466   2.433       .  S
Cd461       O462   2.499       .  S
Cd461       O465   2.494       .  S
Cd461       O463   2.423       .  S
C464        O468   1.266       .  A
C464       C1257   1.474   1_455  S
O469        C472   1.262       .  A
O469       Cd474   2.395       .  S
C470        O479   1.265       .  A
C470        O475   1.264       .  A
O471        C477   1.266       .  A
O471       Cd474   2.473       .  S
C472        O480   1.264       .  A
C472        C485   1.454       .  S
C473        O478   1.263       .  A
C473        O476   1.266       .  A
C473        C590   1.466       .  S
Cd474       O481   2.465       .  S
Cd474       O480   2.495       .  S
Cd474       O479   2.453       .  S
Cd474       O475   2.483       .  S
Cd474       O478   2.438       .  S
Cd474       O476   2.497       .  S
C477        O481   1.264       .  A
C477       C1283   1.466       .  S
O482        C485   1.276       .  A
O482       Cd487   2.472       .  S
C483        O492   1.265       .  A
C483        O488   1.273       .  A
O484       C1322   1.274       .  A
O484       Cd487   2.475       .  S
C485        O493   1.265       .  A
C486        O491   1.272       .  A
C486        O489   1.269       .  A
C486        C577   1.467       .  S
Cd487       O702   2.453   1_554  S
Cd487       O493   2.340       .  S
Cd487       O700   2.413   1_554  S
Cd487       O696   2.498   1_554  S
Cd487       O491   2.479       .  S
Cd487       O489   2.418       .  S
O488       Cd695   2.498       .  S
C490       O1316   1.274       .  A
C490       O1534   1.265   1_554  A
C490        C724   1.473   1_654  S
O492       Cd695   2.413       .  S
O494       C1530   1.265       .  A
O494       Cd695   2.453       .  S
O495        C498   1.265       .  A
O495       Cd500   2.494       .  S
C496        O505   1.264       .  A
C496        O501   1.260       .  A
C496        C509   1.456       .  S
O497        C503   1.266       .  A
O497       Cd500   2.468       .  S
C498        O506   1.265       .  A
C499        O504   1.262       .  A
C499        O502   1.266       .  A
C499        C616   1.467       .  S
Cd500       O507   2.462       .  S
Cd500       O506   2.455       .  S
Cd500       O505   2.511       .  S
Cd500       O501   2.392       .  S
Cd500       O504   2.433       .  S
Cd500       O502   2.510       .  S
C503        O507   1.265       .  A
C503       C1266   1.465   1_455  S
O508        C511   1.270       .  A
O508       Cd721   2.496   1_554  S
C509        O518   1.264       .  A
C509        O514   1.274       .  A
O510        C516   1.274       .  A
O510       Cd513   2.496       .  S
C511        O519   1.266       .  A
C512        O517   1.272       .  A
C512        O515   1.267       .  A
C512        C603   1.472       .  S
Cd513       O716   2.496       .  S
Cd513       O728   2.450       .  S
Cd513       O727   2.435       .  S
Cd513       O518   2.357       .  S
Cd513       O514   2.481       .  S
Cd513       O517   2.502       .  S
Cd513       O515   2.423       .  S
C516        O728   1.264       .  A
C516        C698   1.473   1_455  S
O519       Cd721   2.435   1_554  S
O520        C724   1.264   1_554  A
O520       Cd721   2.450   1_554  S
O521        C524   1.262       .  A
O521       Cd526   2.403       .  S
C522        O531   1.267       .  A
C522        O527   1.263       .  A
C522        C589   1.469       .  S
O523        C529   1.265       .  A
O523       Cd526   2.476       .  S
C524        O532   1.263       .  A
C524        C537   1.454       .  S
C525        O530   1.263       .  A
C525        O528   1.267       .  A
Cd526       O533   2.474       .  S
Cd526       O532   2.488       .  S
Cd526       O531   2.467       .  S
Cd526       O527   2.476       .  S
Cd526       O530   2.442       .  S
Cd526       O528   2.501       .  S
C529        O533   1.263       .  A
C529        C607   1.466       .  S
O534        C537   1.276       .  A
C535        O544   1.267       .  A
C535        O540   1.273       .  A
C535        C576   1.468       .  S
O536        C542   1.275       .  A
O536       Cd539   2.476       .  S
C538        O543   1.273       .  A
C538        O541   1.269       .  A
Cd539       O546   2.458       .  S
Cd539       O545   2.351       .  S
Cd539       O544   2.419       .  S
Cd539       O540   2.492       .  S
Cd539       O543   2.487       .  S
Cd539       O541   2.415       .  S
C542        O546   1.265       .  A
O547        C550   1.264       .  A
O547       Cd552   2.491       .  S
C548        O557   1.264       .  A
C548        O553   1.261       .  A
O549        C555   1.265       .  A
O549       Cd552   2.475       .  S
C550        O558   1.266       .  A
C550        C613   1.470       .  S
C551        O556   1.263       .  A
C551        O554   1.267       .  A
Cd552       O559   2.471       .  S
Cd552       O558   2.460       .  S
Cd552       O557   2.501       .  S
Cd552       O553   2.394       .  S
Cd552       O556   2.446       .  S
Cd552       O554   2.512       .  S
C555        O559   1.266       .  A
C555        C581   1.468       .  S
O560        C563   1.271       .  A
O560       Cd565   2.493       .  S
C561        O570   1.264   1_545  A
C561        O566   1.274       .  A
O562        C568   1.274       .  A
O562       Cd565   2.499       .  S
C563        O571   1.266       .  A
C563        C600   1.470       .  S
C564        O569   1.273       .  A
C564        O567   1.268       .  A
Cd565       O572   2.454       .  S
Cd565       O571   2.437       .  S
Cd565       O570   2.355       .  S
Cd565       O566   2.480   1_565  S
Cd565       O569   2.497       .  S
Cd565       O567   2.415       .  S
C568        O572   1.264       .  A
O573        C576   1.264       .  A
O573       Cd578   2.483       .  S
C574        O583   1.264       .  A
C574        O579   1.261       .  A
O575        C581   1.267       .  A
O575       Cd578   2.476       .  S
C576        O584   1.266       .  A
C577        O582   1.262       .  A
C577        O580   1.265       .  A
Cd578       O585   2.469       .  S
Cd578       O584   2.453       .  S
Cd578       O583   2.503       .  S
Cd578       O579   2.402       .  S
Cd578       O582   2.443       .  S
Cd578       O580   2.502       .  S
C581        O585   1.264       .  A
O586        C589   1.272       .  A
O586       Cd799   2.488       .  S
C587        O596   1.265   1_545  A
C587        O592   1.275       .  A
O588        C594   1.275       .  A
O588       Cd591   2.485       .  S
C589        O597   1.266       .  A
C590        O595   1.273       .  A
C590        O593   1.268       .  A
Cd591       O794   2.488   1_554  S
Cd591       O806   2.428   1_554  S
Cd591       O805   2.433   1_554  S
Cd591       O596   2.357       .  S
Cd591       O592   2.477   1_565  S
Cd591       O595   2.478       .  S
Cd591       O593   2.409       .  S
C594        O806   1.265   1_554  A
O597       Cd799   2.433       .  S
O598        C802   1.265       .  A
O598       Cd799   2.428       .  S
O599        C602   1.261       .  A
O599       Cd604   2.398       .  S
C600        O609   1.266       .  A
C600        O605   1.265       .  A
O601        C607   1.264       .  A
O601       Cd604   2.472       .  S
C602        O610   1.264       .  A
C602        C615   1.456       .  S
C603        O608   1.262       .  A
C603        O606   1.267       .  A
Cd604       O611   2.463       .  S
Cd604       O610   2.501       .  S
Cd604       O609   2.460       .  S
Cd604       O605   2.482       .  S
Cd604       O608   2.443       .  S
Cd604       O606   2.520       .  S
C607        O611   1.266       .  A
O612        C615   1.276       .  A
C613        O622   1.267       .  A
C613        O618   1.274       .  A
O614        C620   1.274       .  A
O614       Cd617   2.464       .  S
C616        O621   1.273       .  A
C616        O619   1.268       .  A
Cd617       O832   2.459       .  S
Cd617       O623   2.361       .  S
Cd617       O830   2.422       .  S
Cd617       O826   2.496       .  S
Cd617       O621   2.482       .  S
Cd617       O619   2.400       .  S
O618       Cd825   2.496   1_554  S
C620        O832   1.266       .  A
O622       Cd825   2.422   1_554  S
O624        C828   1.266   1_554  A
O624       Cd825   2.459   1_554  S
O625        C628   1.272       .  A
O625       Cd630   2.488       .  S
C626        O635   1.266       .  A
C626        O631   1.275       .  A
C626        C641   1.455       .  S
O627        C633   1.276       .  A
O627       Cd630   2.494       .  S
C628        O636   1.267       .  A
C628        C678   1.468       .  S
C629        O634   1.273       .  A
C629        O632   1.268       .  A
C629        C733   1.470       .  S
Cd630       O637   2.439       .  S
Cd630       O636   2.427       .  S
Cd630       O635   2.357       .  S
Cd630       O631   2.463       .  S
Cd630       O634   2.491       .  S
Cd630       O632   2.418       .  S
C633        O637   1.265       .  A
C633       C1504   1.474       .  S
O638        C641   1.261       .  A
O638       Cd643   2.407       .  S
C639        O648   1.266       .  A
C639        O644   1.265       .  A
C639        C691   1.467       .  S
O640        C646   1.261       .  A
O640       Cd643   2.435       .  S
C641        O649   1.264       .  A
C642        O647   1.264       .  A
C642        O645   1.266       .  A
C642       C1543   1.465       .  S
Cd643       O650   2.511       .  S
Cd643       O649   2.493       .  S
Cd643       O648   2.443       .  S
Cd643       O644   2.488       .  S
Cd643       O647   2.470       .  S
Cd643       O645   2.466       .  S
C646        O650   1.267       .  A
C646        C746   1.469       .  S
O651        C654   1.261       .  A
O651       Cd656   2.406       .  S
C652        O661   1.267       .  A
C652        O657   1.265       .  A
C652        C719   1.468       .  S
O653        C659   1.263       .  A
O653       Cd656   2.469       .  S
C654        O662   1.264       .  A
C654        C667   1.459       .  S
C655        O660   1.262       .  A
C655        O658   1.267       .  A
C655        C772   1.470       .  S
Cd656       O663   2.471       .  S
Cd656       O662   2.510       .  S
Cd656       O661   2.451       .  S
Cd656       O657   2.475       .  S
Cd656       O660   2.439       .  S
Cd656       O658   2.514       .  S
C659        O663   1.266       .  A
C659       C1517   1.466   1_455  S
O664        C667   1.277       .  A
O664       Cd669   2.479       .  S
C665        O674   1.267       .  A
C665        O670   1.273       .  A
C665        C706   1.471       .  S
O666        C672   1.275       .  A
O666       Cd669   2.474       .  S
C667        O675   1.266       .  A
C668        O673   1.273       .  A
C668        O671   1.268       .  A
C668        C759   1.472       .  S
Cd669       O676   2.459       .  S
Cd669       O675   2.356       .  S
Cd669       O674   2.433       .  S
Cd669       O670   2.499       .  S
Cd669       O673   2.494       .  S
Cd669       O671   2.423       .  S
C672        O676   1.266       .  A
C672       C1465   1.474   1_455  S
O677        C680   1.262       .  A
O677       Cd682   2.395       .  S
C678        O687   1.265       .  A
C678        O683   1.264       .  A
O679        C685   1.266       .  A
O679       Cd682   2.473       .  S
C680        O688   1.264       .  A
C680        C693   1.454       .  S
C681        O686   1.263       .  A
C681        O684   1.266       .  A
C681        C798   1.466       .  S
Cd682       O689   2.466       .  S
Cd682       O688   2.495       .  S
Cd682       O687   2.453       .  S
Cd682       O683   2.483       .  S
Cd682       O686   2.438       .  S
Cd682       O684   2.497       .  S
C685        O689   1.264       .  A
C685       C1491   1.466       .  S
O690        C693   1.276       .  A
O690       Cd695   2.472       .  S
C691        O700   1.265       .  A
C691        O696   1.273       .  A
O692       C1530   1.274       .  A
O692       Cd695   2.475       .  S
C693        O701   1.265       .  A
C694        O699   1.272       .  A
C694        O697   1.269       .  A
C694        C785   1.467       .  S
Cd695       O701   2.340       .  S
Cd695       O699   2.479       .  S
Cd695       O697   2.418       .  S
C698       O1524   1.274       .  A
C698       O1326   1.265       .  A
O702       C1322   1.265   1_556  A
O703        C706   1.265       .  A
O703       Cd708   2.494       .  S
C704        O713   1.264       .  A
C704        O709   1.260       .  A
C704        C717   1.456       .  S
O705        C711   1.266       .  A
O705       Cd708   2.468       .  S
C706        O714   1.265       .  A
C707        O712   1.262       .  A
C707        O710   1.266       .  A
C707        C824   1.467       .  S
Cd708       O715   2.462       .  S
Cd708       O714   2.455       .  S
Cd708       O713   2.511       .  S
Cd708       O709   2.392       .  S
Cd708       O712   2.433       .  S
Cd708       O710   2.510       .  S
C711        O715   1.265       .  A
C711       C1474   1.465   1_455  S
O716        C719   1.270       .  A
C717        O726   1.264       .  A
C717        O722   1.274       .  A
O718        C724   1.274       .  A
O718       Cd721   2.496       .  S
C719        O727   1.265       .  A
C720        O725   1.272       .  A
C720        O723   1.267       .  A
C720        C811   1.472       .  S
Cd721       O726   2.357       .  S
Cd721       O722   2.481       .  S
Cd721       O725   2.502       .  S
Cd721       O723   2.423       .  S
O729        C732   1.262       .  A
O729       Cd734   2.403       .  S
C730        O739   1.267       .  A
C730        O735   1.263       .  A
C730        C797   1.469       .  S
O731        C737   1.265       .  A
O731       Cd734   2.476       .  S
C732        O740   1.263       .  A
C732        C745   1.454       .  S
C733        O738   1.263       .  A
C733        O736   1.267       .  A
Cd734       O741   2.474       .  S
Cd734       O740   2.488       .  S
Cd734       O739   2.467       .  S
Cd734       O735   2.476       .  S
Cd734       O738   2.442       .  S
Cd734       O736   2.501       .  S
C737        O741   1.263       .  A
C737        C815   1.466       .  S
O742        C745   1.276       .  A
C743        O752   1.267       .  A
C743        O748   1.273       .  A
C743        C784   1.468       .  S
O744        C750   1.275       .  A
O744       Cd747   2.476       .  S
C746        O751   1.273       .  A
C746        O749   1.269       .  A
Cd747       O754   2.458       .  S
Cd747       O753   2.351       .  S
Cd747       O752   2.419       .  S
Cd747       O748   2.492       .  S
Cd747       O751   2.487       .  S
Cd747       O749   2.415       .  S
C750        O754   1.265       .  A
O755        C758   1.264       .  A
O755       Cd760   2.491       .  S
C756        O765   1.264       .  A
C756        O761   1.261       .  A
O757        C763   1.265       .  A
O757       Cd760   2.475       .  S
C758        O766   1.266       .  A
C758        C821   1.470       .  S
C759        O764   1.263       .  A
C759        O762   1.267       .  A
Cd760       O767   2.471       .  S
Cd760       O766   2.459       .  S
Cd760       O765   2.501       .  S
Cd760       O761   2.395       .  S
Cd760       O764   2.446       .  S
Cd760       O762   2.512       .  S
C763        O767   1.266       .  A
C763        C789   1.468       .  S
O768        C771   1.271       .  A
O768       Cd773   2.493       .  S
C769        O778   1.264   1_545  A
C769        O774   1.274       .  A
O770        C776   1.274       .  A
O770       Cd773   2.499       .  S
C771        O779   1.266       .  A
C771        C808   1.470       .  S
C772        O777   1.273       .  A
C772        O775   1.268       .  A
Cd773       O780   2.454       .  S
Cd773       O779   2.436       .  S
Cd773       O778   2.355       .  S
Cd773       O774   2.480   1_565  S
Cd773       O777   2.497       .  S
Cd773       O775   2.414       .  S
C776        O780   1.264       .  A
O781        C784   1.264       .  A
O781       Cd786   2.483       .  S
C782        O791   1.264       .  A
C782        O787   1.261       .  A
O783        C789   1.267       .  A
O783       Cd786   2.476       .  S
C784        O792   1.266       .  A
C785        O790   1.262       .  A
C785        O788   1.265       .  A
Cd786       O793   2.469       .  S
Cd786       O792   2.453       .  S
Cd786       O791   2.503       .  S
Cd786       O787   2.402       .  S
Cd786       O790   2.444       .  S
Cd786       O788   2.502       .  S
C789        O793   1.264       .  A
O794        C797   1.272       .  A
C795        O804   1.265   1_545  A
C795        O800   1.275       .  A
O796        C802   1.275       .  A
O796       Cd799   2.485       .  S
C797        O805   1.266       .  A
C798        O803   1.273       .  A
C798        O801   1.268       .  A
Cd799       O804   2.357       .  S
Cd799       O800   2.477   1_565  S
Cd799       O803   2.478       .  S
Cd799       O801   2.409       .  S
O807        C810   1.261       .  A
O807       Cd812   2.398       .  S
C808        O817   1.266       .  A
C808        O813   1.265       .  A
O809        C815   1.264       .  A
O809       Cd812   2.472       .  S
C810        O818   1.264       .  A
C810        C823   1.456       .  S
C811        O816   1.262       .  A
C811        O814   1.267       .  A
Cd812       O819   2.463       .  S
Cd812       O818   2.501       .  S
Cd812       O817   2.460       .  S
Cd812       O813   2.482       .  S
Cd812       O816   2.443       .  S
Cd812       O814   2.520       .  S
C815        O819   1.266       .  A
O820        C823   1.276       .  A
C821        O830   1.267       .  A
C821        O826   1.274       .  A
O822        C828   1.274       .  A
O822       Cd825   2.464       .  S
C824        O829   1.273       .  A
C824        O827   1.268       .  A
Cd825       O831   2.361       .  S
Cd825       O829   2.482       .  S
Cd825       O827   2.400       .  S
O833        C836   1.272       .  A
O833       Cd838   2.488       .  S
C834        O843   1.266       .  A
C834        O839   1.275       .  A
C834        C849   1.455       .  S
O835        C841   1.276       .  A
O835       Cd838   2.494       .  S
C836        O844   1.267       .  A
C836        C886   1.468       .  S
C837        O842   1.273       .  A
C837        O840   1.268       .  A
C837        C941   1.470       .  S
Cd838       O845   2.439       .  S
Cd838       O844   2.427       .  S
Cd838       O843   2.357       .  S
Cd838       O839   2.463       .  S
Cd838       O842   2.491       .  S
Cd838       O840   2.418       .  S
C841        O845   1.265       .  A
O846        C849   1.261       .  A
O846       Cd851   2.407       .  S
C847        O856   1.266       .  A
C847        O852   1.265       .  A
C847        C899   1.467       .  S
O848        C854   1.261       .  A
O848       Cd851   2.435       .  S
C849        O857   1.264       .  A
C850        O855   1.264       .  A
C850        O853   1.266       .  A
Cd851       O858   2.511       .  S
Cd851       O857   2.494       .  S
Cd851       O856   2.443       .  S
Cd851       O852   2.488       .  S
Cd851       O855   2.470       .  S
Cd851       O853   2.466       .  S
C854        O858   1.267       .  A
C854        C954   1.469       .  S
O859        C862   1.261       .  A
O859       Cd864   2.406       .  S
C860        O869   1.267       .  A
C860        O865   1.265       .  A
C860        C927   1.468       .  S
O861        C867   1.263       .  A
O861       Cd864   2.469       .  S
C862        O870   1.264       .  A
C862        C875   1.459       .  S
C863        O868   1.262       .  A
C863        O866   1.267       .  A
C863        C980   1.470       .  S
Cd864       O871   2.471       .  S
Cd864       O870   2.510       .  S
Cd864       O869   2.451       .  S
Cd864       O865   2.475       .  S
Cd864       O868   2.439       .  S
Cd864       O866   2.514       .  S
C867        O871   1.266       .  A
O872        C875   1.277       .  A
O872       Cd877   2.479       .  S
C873        O882   1.267       .  A
C873        O878   1.273       .  A
C873        C914   1.471       .  S
O874        C880   1.275       .  A
O874       Cd877   2.474       .  S
C875        O883   1.266       .  A
C876        O881   1.273       .  A
C876        O879   1.268       .  A
C876        C967   1.472       .  S
Cd877       O884   2.459       .  S
Cd877       O883   2.356       .  S
Cd877       O882   2.433       .  S
Cd877       O878   2.499       .  S
Cd877       O881   2.494       .  S
Cd877       O879   2.423       .  S
C880        O884   1.266       .  A
O885        C888   1.262       .  A
O885       Cd890   2.395       .  S
C886        O895   1.265       .  A
C886        O891   1.264       .  A
O887        C893   1.266       .  A
O887       Cd890   2.473       .  S
C888        O896   1.264       .  A
C888        C901   1.454       .  S
C889        O894   1.263       .  A
C889        O892   1.266       .  A
C889       C1006   1.466       .  S
Cd890       O897   2.466       .  S
Cd890       O896   2.495       .  S
Cd890       O895   2.453       .  S
Cd890       O891   2.483       .  S
Cd890       O894   2.438       .  S
Cd890       O892   2.497       .  S
C893        O897   1.264       .  A
O898        C901   1.276       .  A
O898       Cd903   2.472       .  S
C899        O908   1.265       .  A
C899        O904   1.273       .  A
O900       Cd903   2.475       .  S
C901        O909   1.265       .  A
C902        O907   1.272       .  A
C902        O905   1.269       .  A
C902        C993   1.467       .  S
Cd903      O1118   2.453   1_554  S
Cd903       O909   2.340       .  S
Cd903      O1116   2.413   1_554  S
Cd903      O1112   2.498   1_554  S
Cd903       O907   2.479       .  S
Cd903       O905   2.418       .  S
O904      Cd1111   2.498       .  S
C906       C1140   1.473   1_554  S
O908      Cd1111   2.413       .  S
O910      Cd1111   2.453       .  S
O911        C914   1.265       .  A
O911       Cd916   2.494       .  S
C912        O921   1.264       .  A
C912        O917   1.260       .  A
C912        C925   1.456       .  S
O913        C919   1.266       .  A
O913       Cd916   2.468       .  S
C914        O922   1.265       .  A
C915        O920   1.262       .  A
C915        O918   1.266       .  A
C915       C1032   1.467       .  S
Cd916       O923   2.462       .  S
Cd916       O922   2.455       .  S
Cd916       O921   2.511       .  S
Cd916       O917   2.392       .  S
Cd916       O920   2.433       .  S
Cd916       O918   2.510       .  S
C919        O923   1.265       .  A
O924        C927   1.270       .  A
O924      Cd1137   2.496   1_554  S
C925        O934   1.264       .  A
C925        O930   1.274       .  A
O926        C932   1.274       .  A
O926       Cd929   2.496       .  S
C927        O935   1.265       .  A
C928        O933   1.272       .  A
C928        O931   1.267       .  A
C928       C1019   1.472       .  S
Cd929      O1132   2.496       .  S
Cd929      O1144   2.450       .  S
Cd929      O1143   2.435       .  S
Cd929       O934   2.357       .  S
Cd929       O930   2.481       .  S
Cd929       O933   2.502       .  S
Cd929       O931   2.423       .  S
C932       O1144   1.264       .  A
C932       C1114   1.473       .  S
O935      Cd1137   2.435   1_554  S
O936       C1140   1.264   1_554  A
O936      Cd1137   2.450   1_554  S
O937        C940   1.262       .  A
O937       Cd942   2.403       .  S
C938        O947   1.267       .  A
C938        O943   1.263       .  A
C938       C1005   1.469       .  S
O939        C945   1.265       .  A
O939       Cd942   2.476       .  S
C940        O948   1.263       .  A
C940        C953   1.454       .  S
C941        O946   1.263       .  A
C941        O944   1.267       .  A
Cd942       O949   2.474       .  S
Cd942       O948   2.488       .  S
Cd942       O947   2.467       .  S
Cd942       O943   2.476       .  S
Cd942       O946   2.442       .  S
Cd942       O944   2.501       .  S
C945        O949   1.263       .  A
C945       C1023   1.466       .  S
O950        C953   1.276       .  A
O950      Cd1371   2.459       .  S
C951        O960   1.267       .  A
C951        O956   1.273       .  A
C951        C992   1.468       .  S
O952        C958   1.275       .  A
O952       Cd955   2.476       .  S
C953       O1377   1.265       .  A
C954        O959   1.273       .  A
C954        O957   1.269       .  A
Cd955      O1366   2.459   1_545  S
Cd955       O962   2.458   1_545  S
Cd955       O961   2.351   1_545  S
Cd955       O960   2.419       .  S
Cd955       O956   2.492       .  S
Cd955       O959   2.487       .  S
Cd955       O957   2.415       .  S
C958        O962   1.265   1_545  A
C958       C1400   1.475   1_545  S
O961       C1369   1.265       .  A
O963        C966   1.264       .  A
O963       Cd968   2.491       .  S
C964        O973   1.264       .  A
C964        O969   1.261       .  A
C964       C1393   1.456       .  S
O965        C971   1.265       .  A
O965       Cd968   2.475       .  S
C966        O974   1.266       .  A
C966       C1029   1.470       .  S
C967        O972   1.263       .  A
C967        O970   1.267       .  A
Cd968       O975   2.471       .  S
Cd968       O974   2.459       .  S
Cd968       O973   2.501       .  S
Cd968       O969   2.395       .  S
Cd968       O972   2.446       .  S
Cd968       O970   2.512       .  S
C971        O975   1.266       .  A
C971        C997   1.468       .  S
O976        C979   1.271       .  A
O976       Cd981   2.493       .  S
C977        O986   1.264       .  A
C977        O982   1.274       .  A
C977       C1380   1.456       .  S
O978        C984   1.274       .  A
O978       Cd981   2.499       .  S
C979        O987   1.266       .  A
C979       C1016   1.470       .  S
C980        O985   1.273       .  A
C980        O983   1.268       .  A
Cd981       O988   2.454       .  S
Cd981       O987   2.436       .  S
Cd981       O986   2.355       .  S
Cd981       O982   2.480       .  S
Cd981       O985   2.497       .  S
Cd981       O983   2.414       .  S
C984        O988   1.264       .  A
C984       C1374   1.475       .  S
O989        C992   1.264       .  A
O989       Cd994   2.483       .  S
C990        O999   1.264       .  A
C990        O995   1.261       .  A
C990       C1419   1.456       .  S
O991        C997   1.267       .  A
O991       Cd994   2.476       .  S
C992       O1000   1.266       .  A
C993        O998   1.262       .  A
C993        O996   1.265       .  A
Cd994      O1001   2.469       .  S
Cd994      O1000   2.454       .  S
Cd994       O999   2.503       .  S
Cd994       O995   2.402       .  S
Cd994       O998   2.443       .  S
Cd994       O996   2.502       .  S
C997       O1001   1.264       .  A
O1002      C1005   1.272       .  A
O1002     Cd1215   2.487       .  S
C1003      O1012   1.265       .  A
C1003      O1008   1.275       .  A
C1003      C1406   1.456       .  S
O1004      C1010   1.275       .  A
O1004     Cd1007   2.485       .  S
C1005      O1013   1.266       .  A
C1006      O1011   1.273       .  A
C1006      O1009   1.268       .  A
Cd1007     O1210   2.488   1_554  S
Cd1007     O1222   2.428   1_554  S
Cd1007     O1221   2.433   1_554  S
Cd1007     O1012   2.357       .  S
Cd1007     O1008   2.477       .  S
Cd1007     O1011   2.478       .  S
Cd1007     O1009   2.409       .  S
C1010      O1222   1.265   1_554  A
C1010      C1660   1.471   1_554  S
O1013     Cd1215   2.433       .  S
O1014      C1218   1.265       .  A
O1014     Cd1215   2.428       .  S
O1015      C1018   1.261       .  A
O1015     Cd1020   2.398       .  S
C1016      O1025   1.266       .  A
C1016      O1021   1.265       .  A
O1017      C1023   1.264       .  A
O1017     Cd1020   2.472       .  S
C1018      O1026   1.264       .  A
C1018      C1031   1.456       .  S
C1019      O1024   1.262       .  A
C1019      O1022   1.267       .  A
Cd1020     O1027   2.463       .  S
Cd1020     O1026   2.501       .  S
Cd1020     O1025   2.460       .  S
Cd1020     O1021   2.482       .  S
Cd1020     O1024   2.443       .  S
Cd1020     O1022   2.520       .  S
C1023      O1027   1.266       .  A
O1028      C1031   1.276       .  A
O1028     Cd1449   2.472       .  S
C1029      O1038   1.267       .  A
C1029      O1034   1.274       .  A
O1030      C1036   1.274   1_545  A
O1030     Cd1033   2.464       .  S
C1031      O1455   1.265       .  A
C1032      O1037   1.273       .  A
C1032      O1035   1.268       .  A
Cd1033     O1444   2.473   1_545  S
Cd1033     O1248   2.459   1_545  S
Cd1033     O1039   2.361   1_545  S
Cd1033     O1246   2.422       .  S
Cd1033     O1242   2.496       .  S
Cd1033     O1037   2.482       .  S
Cd1033     O1035   2.400       .  S
O1034     Cd1241   2.496   1_554  S
C1036      O1248   1.266       .  A
C1036      C1634   1.471       .  S
O1038     Cd1241   2.422   1_554  S
O1039      C1447   1.265       .  A
O1040      C1244   1.266   1_554  A
O1040     Cd1241   2.459   1_564  S
O1041      C1044   1.272       .  A
O1041     Cd1046   2.488       .  S
C1042      O1051   1.266       .  A
C1042      O1047   1.275       .  A
C1042      C1057   1.455       .  S
O1043      C1049   1.276       .  A
O1043     Cd1046   2.494       .  S
C1044      O1052   1.267       .  A
C1044      C1094   1.468       .  S
C1045      O1050   1.273       .  A
C1045      O1048   1.268       .  A
C1045      C1149   1.470       .  S
Cd1046     O1053   2.439       .  S
Cd1046     O1052   2.427       .  S
Cd1046     O1051   2.357       .  S
Cd1046     O1047   2.463       .  S
Cd1046     O1050   2.491       .  S
Cd1046     O1048   2.418       .  S
C1049      O1053   1.265       .  A
O1054      C1057   1.261       .  A
O1054     Cd1059   2.407       .  S
C1055      O1064   1.266       .  A
C1055      O1060   1.265       .  A
C1055      C1107   1.467       .  S
O1056      C1062   1.261       .  A
O1056     Cd1059   2.434       .  S
C1057      O1065   1.264       .  A
C1058      O1063   1.264       .  A
C1058      O1061   1.266       .  A
Cd1059     O1066   2.511       .  S
Cd1059     O1065   2.493       .  S
Cd1059     O1064   2.443       .  S
Cd1059     O1060   2.488       .  S
Cd1059     O1063   2.470       .  S
Cd1059     O1061   2.466       .  S
C1062      O1066   1.267       .  A
C1062      C1162   1.469       .  S
O1067      C1070   1.261       .  A
O1067     Cd1072   2.406       .  S
C1068      O1077   1.267       .  A
C1068      O1073   1.265       .  A
C1068      C1135   1.468       .  S
O1069      C1075   1.263       .  A
O1069     Cd1072   2.469       .  S
C1070      O1078   1.264       .  A
C1070      C1083   1.459       .  S
C1071      O1076   1.262       .  A
C1071      O1074   1.267       .  A
C1071      C1188   1.470       .  S
Cd1072     O1079   2.471       .  S
Cd1072     O1078   2.510       .  S
Cd1072     O1077   2.451       .  S
Cd1072     O1073   2.475       .  S
Cd1072     O1076   2.439       .  S
Cd1072     O1074   2.514       .  S
C1075      O1079   1.266       .  A
O1080      C1083   1.277       .  A
O1080     Cd1085   2.479       .  S
C1081      O1090   1.267       .  A
C1081      O1086   1.273       .  A
C1081      C1122   1.471       .  S
O1082      C1088   1.275       .  A
O1082     Cd1085   2.474       .  S
C1083      O1091   1.266       .  A
C1084      O1089   1.273       .  A
C1084      O1087   1.268       .  A
C1084      C1175   1.472       .  S
Cd1085     O1092   2.459       .  S
Cd1085     O1091   2.356       .  S
Cd1085     O1090   2.433       .  S
Cd1085     O1086   2.499       .  S
Cd1085     O1089   2.494       .  S
Cd1085     O1087   2.423       .  S
C1088      O1092   1.266       .  A
O1093      C1096   1.262       .  A
O1093     Cd1098   2.395       .  S
C1094      O1103   1.265       .  A
C1094      O1099   1.264       .  A
O1095      C1101   1.266       .  A
O1095     Cd1098   2.473       .  S
C1096      O1104   1.264       .  A
C1096      C1109   1.454       .  S
C1097      O1102   1.263       .  A
C1097      O1100   1.266       .  A
C1097      C1214   1.466       .  S
Cd1098     O1105   2.465       .  S
Cd1098     O1104   2.495       .  S
Cd1098     O1103   2.453       .  S
Cd1098     O1099   2.483       .  S
Cd1098     O1102   2.438       .  S
Cd1098     O1100   2.497       .  S
C1101      O1105   1.264       .  A
O1106      C1109   1.276       .  A
O1106     Cd1111   2.472       .  S
C1107      O1116   1.265       .  A
C1107      O1112   1.273       .  A
O1108     Cd1111   2.475       .  S
C1109      O1117   1.265       .  A
C1110      O1115   1.272       .  A
C1110      O1113   1.269       .  A
C1110      C1201   1.467       .  S
Cd1111     O1117   2.340       .  S
Cd1111     O1115   2.479       .  S
Cd1111     O1113   2.418       .  S
O1119      C1122   1.265       .  A
O1119     Cd1124   2.494       .  S
C1120      O1129   1.264       .  A
C1120      O1125   1.260       .  A
C1120      C1133   1.456       .  S
O1121      C1127   1.266       .  A
O1121     Cd1124   2.468       .  S
C1122      O1130   1.265       .  A
C1123      O1128   1.262       .  A
C1123      O1126   1.266       .  A
C1123      C1240   1.467       .  S
Cd1124     O1131   2.462       .  S
Cd1124     O1130   2.455       .  S
Cd1124     O1129   2.511       .  S
Cd1124     O1125   2.392       .  S
Cd1124     O1128   2.433       .  S
Cd1124     O1126   2.510       .  S
C1127      O1131   1.265       .  A
O1132      C1135   1.270       .  A
C1133      O1142   1.264       .  A
C1133      O1138   1.274       .  A
O1134      C1140   1.274       .  A
O1134     Cd1137   2.496       .  S
C1135      O1143   1.266       .  A
C1136      O1141   1.272       .  A
C1136      O1139   1.267       .  A
C1136      C1227   1.472       .  S
Cd1137     O1142   2.357       .  S
Cd1137     O1138   2.481       .  S
Cd1137     O1141   2.502       .  S
Cd1137     O1139   2.423       .  S
O1145      C1148   1.262       .  A
O1145     Cd1150   2.403       .  S
C1146      O1155   1.267       .  A
C1146      O1151   1.263       .  A
C1146      C1213   1.469       .  S
O1147      C1153   1.265       .  A
O1147     Cd1150   2.476       .  S
C1148      O1156   1.263       .  A
C1148      C1161   1.454       .  S
C1149      O1154   1.263       .  A
C1149      O1152   1.267       .  A
Cd1150     O1157   2.474       .  S
Cd1150     O1156   2.488       .  S
Cd1150     O1155   2.467       .  S
Cd1150     O1151   2.476       .  S
Cd1150     O1154   2.442       .  S
Cd1150     O1152   2.501       .  S
C1153      O1157   1.263       .  A
C1153      C1231   1.466       .  S
O1158      C1161   1.276       .  A
O1158     Cd1579   2.459       .  S
C1159      O1168   1.267       .  A
C1159      O1164   1.273       .  A
C1159      C1200   1.468       .  S
O1160      C1166   1.275       .  A
O1160     Cd1163   2.476       .  S
C1161      O1585   1.265       .  A
C1162      O1167   1.273       .  A
C1162      O1165   1.269       .  A
Cd1163     O1574   2.459   1_545  S
Cd1163     O1170   2.458   1_545  S
Cd1163     O1169   2.351   1_545  S
Cd1163     O1168   2.419       .  S
Cd1163     O1164   2.492       .  S
Cd1163     O1167   2.487       .  S
Cd1163     O1165   2.415       .  S
C1166      O1170   1.265   1_545  A
C1166      C1608   1.475   1_545  S
O1169      C1577   1.265       .  A
O1171      C1174   1.264       .  A
O1171     Cd1176   2.491       .  S
C1172      O1181   1.264       .  A
C1172      O1177   1.261       .  A
C1172      C1601   1.456       .  S
O1173      C1179   1.265       .  A
O1173     Cd1176   2.475       .  S
C1174      O1182   1.266       .  A
C1174      C1237   1.470       .  S
C1175      O1180   1.263       .  A
C1175      O1178   1.267       .  A
Cd1176     O1183   2.471       .  S
Cd1176     O1182   2.460       .  S
Cd1176     O1181   2.501       .  S
Cd1176     O1177   2.394       .  S
Cd1176     O1180   2.446       .  S
Cd1176     O1178   2.512       .  S
C1179      O1183   1.266       .  A
C1179      C1205   1.468       .  S
O1184      C1187   1.271       .  A
O1184     Cd1189   2.493       .  S
C1185      O1194   1.264       .  A
C1185      O1190   1.274       .  A
C1185      C1588   1.456       .  S
O1186      C1192   1.274       .  A
O1186     Cd1189   2.499       .  S
C1187      O1195   1.266       .  A
C1187      C1224   1.470       .  S
C1188      O1193   1.273       .  A
C1188      O1191   1.268       .  A
Cd1189     O1196   2.454       .  S
Cd1189     O1195   2.437       .  S
Cd1189     O1194   2.355       .  S
Cd1189     O1190   2.480       .  S
Cd1189     O1193   2.497       .  S
Cd1189     O1191   2.415       .  S
C1192      O1196   1.264       .  A
C1192      C1582   1.475       .  S
O1197      C1200   1.264       .  A
O1197     Cd1202   2.483       .  S
C1198      O1207   1.264       .  A
C1198      O1203   1.261       .  A
C1198      C1627   1.456       .  S
O1199      C1205   1.267       .  A
O1199     Cd1202   2.476       .  S
C1200      O1208   1.266       .  A
C1201      O1206   1.262       .  A
C1201      O1204   1.265       .  A
Cd1202     O1209   2.469       .  S
Cd1202     O1208   2.453       .  S
Cd1202     O1207   2.503       .  S
Cd1202     O1203   2.402       .  S
Cd1202     O1206   2.444       .  S
Cd1202     O1204   2.502       .  S
C1205      O1209   1.264       .  A
O1210      C1213   1.272       .  A
C1211      O1220   1.265       .  A
C1211      O1216   1.275       .  A
C1211      C1614   1.456       .  S
O1212      C1218   1.275       .  A
O1212     Cd1215   2.485       .  S
C1213      O1221   1.266       .  A
C1214      O1219   1.273       .  A
C1214      O1217   1.268       .  A
Cd1215     O1220   2.357       .  S
Cd1215     O1216   2.477       .  S
Cd1215     O1219   2.478       .  S
Cd1215     O1217   2.409       .  S
C1218      C1452   1.471       .  S
O1223      C1226   1.261       .  A
O1223     Cd1228   2.398       .  S
C1224      O1233   1.266       .  A
C1224      O1229   1.265       .  A
O1225      C1231   1.264       .  A
O1225     Cd1228   2.472       .  S
C1226      O1234   1.264       .  A
C1226      C1239   1.456       .  S
C1227      O1232   1.262       .  A
C1227      O1230   1.267       .  A
Cd1228     O1235   2.463       .  S
Cd1228     O1234   2.501       .  S
Cd1228     O1233   2.460       .  S
Cd1228     O1229   2.482       .  S
Cd1228     O1232   2.443       .  S
Cd1228     O1230   2.520       .  S
C1231      O1235   1.266       .  A
O1236      C1239   1.276       .  A
O1236     Cd1657   2.473       .  S
C1237      O1246   1.267       .  A
C1237      O1242   1.274       .  A
O1238      C1244   1.274   1_545  A
O1238     Cd1241   2.464       .  S
C1239      O1663   1.265       .  A
C1240      O1245   1.273       .  A
C1240      O1243   1.268       .  A
Cd1241     O1652   2.473   1_545  S
Cd1241     O1247   2.361   1_545  S
Cd1241     O1245   2.482       .  S
Cd1241     O1243   2.400       .  S
C1244      C1426   1.471   1_556  S
O1247      C1655   1.265       .  A
O1249      C1252   1.272       .  A
O1249     Cd1254   2.488       .  S
C1250      O1259   1.266       .  A
C1250      O1255   1.275       .  A
C1250      C1265   1.455       .  S
O1251      C1257   1.276       .  A
O1251     Cd1254   2.494       .  S
C1252      O1260   1.267       .  A
C1252      C1302   1.468       .  S
C1253      O1258   1.273       .  A
C1253      O1256   1.268       .  A
C1253      C1357   1.470       .  S
Cd1254     O1261   2.439       .  S
Cd1254     O1260   2.427       .  S
Cd1254     O1259   2.357       .  S
Cd1254     O1255   2.463       .  S
Cd1254     O1258   2.491       .  S
Cd1254     O1256   2.418       .  S
C1257      O1261   1.265       .  A
O1262      C1265   1.261       .  A
O1262     Cd1267   2.407       .  S
C1263      O1272   1.266       .  A
C1263      O1268   1.265       .  A
C1263      C1315   1.467       .  S
O1264      C1270   1.261       .  A
O1264     Cd1267   2.435       .  S
C1265      O1273   1.264       .  A
C1266      O1271   1.264       .  A
C1266      O1269   1.266       .  A
Cd1267     O1274   2.511       .  S
Cd1267     O1273   2.494       .  S
Cd1267     O1272   2.443       .  S
Cd1267     O1268   2.488       .  S
Cd1267     O1271   2.470       .  S
Cd1267     O1269   2.466       .  S
C1270      O1274   1.267       .  A
C1270      C1370   1.469       .  S
O1275      C1278   1.261       .  A
O1275     Cd1280   2.406       .  S
C1276      O1285   1.267       .  A
C1276      O1281   1.265       .  A
C1276      C1343   1.468       .  S
O1277      C1283   1.263       .  A
O1277     Cd1280   2.469       .  S
C1278      O1286   1.264       .  A
C1278      C1291   1.459       .  S
C1279      O1284   1.262       .  A
C1279      O1282   1.267       .  A
C1279      C1396   1.470       .  S
Cd1280     O1287   2.471       .  S
Cd1280     O1286   2.510       .  S
Cd1280     O1285   2.451       .  S
Cd1280     O1281   2.475       .  S
Cd1280     O1284   2.439       .  S
Cd1280     O1282   2.514       .  S
C1283      O1287   1.266       .  A
O1288      C1291   1.277       .  A
O1288     Cd1293   2.479       .  S
C1289      O1298   1.267       .  A
C1289      O1294   1.273       .  A
C1289      C1330   1.472       .  S
O1290      C1296   1.275       .  A
O1290     Cd1293   2.474       .  S
C1291      O1299   1.266       .  A
C1292      O1297   1.273       .  A
C1292      O1295   1.268       .  A
C1292      C1383   1.472       .  S
Cd1293     O1300   2.459       .  S
Cd1293     O1299   2.356       .  S
Cd1293     O1298   2.433       .  S
Cd1293     O1294   2.499       .  S
Cd1293     O1297   2.494       .  S
Cd1293     O1295   2.423       .  S
C1296      O1300   1.266       .  A
O1301      C1304   1.262       .  A
O1301     Cd1306   2.395       .  S
C1302      O1311   1.265       .  A
C1302      O1307   1.264       .  A
O1303      C1309   1.266       .  A
O1303     Cd1306   2.473       .  S
C1304      O1312   1.264       .  A
C1304      C1317   1.454       .  S
C1305      O1310   1.263       .  A
C1305      O1308   1.266       .  A
C1305      C1422   1.466       .  S
Cd1306     O1313   2.466       .  S
Cd1306     O1312   2.495       .  S
Cd1306     O1311   2.454       .  S
Cd1306     O1307   2.483       .  S
Cd1306     O1310   2.438       .  S
Cd1306     O1308   2.497       .  S
C1309      O1313   1.264       .  A
O1314      C1317   1.276       .  A
O1314     Cd1319   2.472       .  S
C1315      O1324   1.265       .  A
C1315      O1320   1.273       .  A
O1316     Cd1319   2.475       .  S
C1317      O1325   1.265       .  A
C1318      O1323   1.272       .  A
C1318      O1321   1.269       .  A
C1318      C1409   1.467       .  S
Cd1319     O1534   2.453   1_554  S
Cd1319     O1325   2.340       .  S
Cd1319     O1532   2.413   1_554  S
Cd1319     O1528   2.498   1_554  S
Cd1319     O1323   2.479       .  S
Cd1319     O1321   2.418       .  S
O1320     Cd1527   2.498       .  S
C1322      C1556   1.473   1_554  S
O1324     Cd1527   2.413       .  S
O1326     Cd1527   2.453       .  S
O1327      C1330   1.265       .  A
O1327     Cd1332   2.494       .  S
C1328      O1337   1.264       .  A
C1328      O1333   1.260       .  A
C1328      C1341   1.456       .  S
O1329      C1335   1.266       .  A
O1329     Cd1332   2.468       .  S
C1330      O1338   1.265       .  A
C1331      O1336   1.262       .  A
C1331      O1334   1.266       .  A
C1331      C1448   1.467       .  S
Cd1332     O1339   2.462       .  S
Cd1332     O1338   2.455       .  S
Cd1332     O1337   2.511       .  S
Cd1332     O1333   2.392       .  S
Cd1332     O1336   2.433       .  S
Cd1332     O1334   2.510       .  S
C1335      O1339   1.265       .  A
O1340      C1343   1.270       .  A
O1340     Cd1553   2.496   1_554  S
C1341      O1350   1.264       .  A
C1341      O1346   1.274       .  A
O1342      C1348   1.274       .  A
O1342     Cd1345   2.496       .  S
C1343      O1351   1.266       .  A
C1344      O1349   1.272       .  A
C1344      O1347   1.267       .  A
C1344      C1435   1.472       .  S
Cd1345     O1548   2.496       .  S
Cd1345     O1560   2.450       .  S
Cd1345     O1559   2.435       .  S
Cd1345     O1350   2.357       .  S
Cd1345     O1346   2.481       .  S
Cd1345     O1349   2.502       .  S
Cd1345     O1347   2.423       .  S
C1348      O1560   1.264       .  A
C1348      C1530   1.473       .  S
O1351     Cd1553   2.435   1_554  S
O1352      C1556   1.264   1_554  A
O1352     Cd1553   2.450   1_554  S
O1353      C1356   1.262       .  A
O1353     Cd1358   2.403       .  S
C1354      O1363   1.267       .  A
C1354      O1359   1.263       .  A
C1354      C1421   1.469       .  S
O1355      C1361   1.265       .  A
O1355     Cd1358   2.476       .  S
C1356      O1364   1.263       .  A
C1356      C1369   1.454       .  S
C1357      O1362   1.263       .  A
C1357      O1360   1.267       .  A
Cd1358     O1365   2.474       .  S
Cd1358     O1364   2.488       .  S
Cd1358     O1363   2.467       .  S
Cd1358     O1359   2.476       .  S
Cd1358     O1362   2.442       .  S
Cd1358     O1360   2.501       .  S
C1361      O1365   1.263       .  A
C1361      C1439   1.466       .  S
O1366      C1369   1.276       .  A
C1367      O1376   1.267       .  A
C1367      O1372   1.273       .  A
C1367      C1408   1.468       .  S
O1368      C1374   1.275       .  A
O1368     Cd1371   2.476       .  S
C1370      O1375   1.273       .  A
C1370      O1373   1.269       .  A
Cd1371     O1378   2.458       .  S
Cd1371     O1377   2.351       .  S
Cd1371     O1376   2.419       .  S
Cd1371     O1372   2.492       .  S
Cd1371     O1375   2.487       .  S
Cd1371     O1373   2.415       .  S
C1374      O1378   1.265       .  A
O1379      C1382   1.264       .  A
O1379     Cd1384   2.491       .  S
C1380      O1389   1.264       .  A
C1380      O1385   1.261       .  A
O1381      C1387   1.265       .  A
O1381     Cd1384   2.475       .  S
C1382      O1390   1.266       .  A
C1382      C1445   1.470       .  S
C1383      O1388   1.263       .  A
C1383      O1386   1.267       .  A
Cd1384     O1391   2.471       .  S
Cd1384     O1390   2.459       .  S
Cd1384     O1389   2.501       .  S
Cd1384     O1385   2.395       .  S
Cd1384     O1388   2.446       .  S
Cd1384     O1386   2.512       .  S
C1387      O1391   1.266       .  A
C1387      C1413   1.468       .  S
O1392      C1395   1.271       .  A
O1392     Cd1397   2.493       .  S
C1393      O1402   1.264   1_545  A
C1393      O1398   1.274       .  A
O1394      C1400   1.274       .  A
O1394     Cd1397   2.499       .  S
C1395      O1403   1.266       .  A
C1395      C1432   1.470       .  S
C1396      O1401   1.273       .  A
C1396      O1399   1.268       .  A
Cd1397     O1404   2.454       .  S
Cd1397     O1403   2.437       .  S
Cd1397     O1402   2.355       .  S
Cd1397     O1398   2.480   1_565  S
Cd1397     O1401   2.497       .  S
Cd1397     O1399   2.414       .  S
C1400      O1404   1.264       .  A
O1405      C1408   1.264       .  A
O1405     Cd1410   2.483       .  S
C1406      O1415   1.264       .  A
C1406      O1411   1.261       .  A
O1407      C1413   1.267       .  A
O1407     Cd1410   2.476       .  S
C1408      O1416   1.266       .  A
C1409      O1414   1.262       .  A
C1409      O1412   1.265       .  A
Cd1410     O1417   2.469       .  S
Cd1410     O1416   2.453       .  S
Cd1410     O1415   2.503       .  S
Cd1410     O1411   2.402       .  S
Cd1410     O1414   2.443       .  S
Cd1410     O1412   2.502       .  S
C1413      O1417   1.264       .  A
O1418      C1421   1.272       .  A
O1418     Cd1631   2.487       .  S
C1419      O1428   1.265   1_545  A
C1419      O1424   1.275       .  A
O1420      C1426   1.275       .  A
O1420     Cd1423   2.485       .  S
C1421      O1429   1.266       .  A
C1422      O1427   1.273       .  A
C1422      O1425   1.268       .  A
Cd1423     O1626   2.488   1_554  S
Cd1423     O1638   2.428   1_554  S
Cd1423     O1637   2.433   1_554  S
Cd1423     O1428   2.357       .  S
Cd1423     O1424   2.477   1_565  S
Cd1423     O1427   2.478       .  S
Cd1423     O1425   2.409       .  S
C1426      O1638   1.265   1_554  A
O1429     Cd1631   2.433       .  S
O1430      C1634   1.265       .  A
O1430     Cd1631   2.428       .  S
O1431      C1434   1.261       .  A
O1431     Cd1436   2.398       .  S
C1432      O1441   1.266       .  A
C1432      O1437   1.265       .  A
O1433      C1439   1.264       .  A
O1433     Cd1436   2.472       .  S
C1434      O1442   1.264       .  A
C1434      C1447   1.456       .  S
C1435      O1440   1.262       .  A
C1435      O1438   1.267       .  A
Cd1436     O1443   2.463       .  S
Cd1436     O1442   2.501       .  S
Cd1436     O1441   2.460       .  S
Cd1436     O1437   2.482       .  S
Cd1436     O1440   2.443       .  S
Cd1436     O1438   2.520       .  S
C1439      O1443   1.266       .  A
O1444      C1447   1.276       .  A
C1445      O1454   1.267       .  A
C1445      O1450   1.274       .  A
O1446      C1452   1.274       .  A
O1446     Cd1449   2.464       .  S
C1448      O1453   1.273       .  A
C1448      O1451   1.268       .  A
Cd1449     O1664   2.459       .  S
Cd1449     O1455   2.361       .  S
Cd1449     O1662   2.422       .  S
Cd1449     O1658   2.496       .  S
Cd1449     O1453   2.482       .  S
Cd1449     O1451   2.400       .  S
O1450     Cd1657   2.496   1_554  S
C1452      O1664   1.266       .  A
O1454     Cd1657   2.422   1_554  S
O1456      C1660   1.266   1_554  A
O1456     Cd1657   2.459   1_554  S
O1457      C1460   1.272       .  A
O1457     Cd1462   2.488       .  S
C1458      O1467   1.266       .  A
C1458      O1463   1.275       .  A
C1458      C1473   1.455       .  S
O1459      C1465   1.276       .  A
O1459     Cd1462   2.494       .  S
C1460      O1468   1.267       .  A
C1460      C1510   1.468       .  S
C1461      O1466   1.273       .  A
C1461      O1464   1.268       .  A
C1461      C1565   1.470       .  S
Cd1462     O1469   2.439       .  S
Cd1462     O1468   2.427       .  S
Cd1462     O1467   2.357       .  S
Cd1462     O1463   2.463       .  S
Cd1462     O1466   2.491       .  S
Cd1462     O1464   2.418       .  S
C1465      O1469   1.265       .  A
O1470      C1473   1.261       .  A
O1470     Cd1475   2.407       .  S
C1471      O1480   1.266       .  A
C1471      O1476   1.265       .  A
C1471      C1523   1.467       .  S
O1472      C1478   1.261       .  A
O1472     Cd1475   2.434       .  S
C1473      O1481   1.264       .  A
C1474      O1479   1.264       .  A
C1474      O1477   1.266       .  A
Cd1475     O1482   2.511       .  S
Cd1475     O1481   2.493       .  S
Cd1475     O1480   2.443       .  S
Cd1475     O1476   2.488       .  S
Cd1475     O1479   2.470       .  S
Cd1475     O1477   2.466       .  S
C1478      O1482   1.267       .  A
C1478      C1578   1.469       .  S
O1483      C1486   1.261       .  A
O1483     Cd1488   2.406       .  S
C1484      O1493   1.267       .  A
C1484      O1489   1.265       .  A
C1484      C1551   1.468       .  S
O1485      C1491   1.263       .  A
O1485     Cd1488   2.469       .  S
C1486      O1494   1.264       .  A
C1486      C1499   1.459       .  S
C1487      O1492   1.262       .  A
C1487      O1490   1.267       .  A
C1487      C1604   1.470       .  S
Cd1488     O1495   2.471       .  S
Cd1488     O1494   2.510       .  S
Cd1488     O1493   2.451       .  S
Cd1488     O1489   2.475       .  S
Cd1488     O1492   2.439       .  S
Cd1488     O1490   2.514       .  S
C1491      O1495   1.266       .  A
O1496      C1499   1.277       .  A
O1496     Cd1501   2.479       .  S
C1497      O1506   1.267       .  A
C1497      O1502   1.273       .  A
C1497      C1538   1.471       .  S
O1498      C1504   1.275       .  A
O1498     Cd1501   2.474       .  S
C1499      O1507   1.266       .  A
C1500      O1505   1.273       .  A
C1500      O1503   1.268       .  A
C1500      C1591   1.472       .  S
Cd1501     O1508   2.459       .  S
Cd1501     O1507   2.356       .  S
Cd1501     O1506   2.433       .  S
Cd1501     O1502   2.499       .  S
Cd1501     O1505   2.494       .  S
Cd1501     O1503   2.423       .  S
C1504      O1508   1.266       .  A
O1509      C1512   1.262       .  A
O1509     Cd1514   2.395       .  S
C1510      O1519   1.265       .  A
C1510      O1515   1.264       .  A
O1511      C1517   1.266       .  A
O1511     Cd1514   2.473       .  S
C1512      O1520   1.264       .  A
C1512      C1525   1.454       .  S
C1513      O1518   1.263       .  A
C1513      O1516   1.266       .  A
C1513      C1630   1.466       .  S
Cd1514     O1521   2.465       .  S
Cd1514     O1520   2.495       .  S
Cd1514     O1519   2.453       .  S
Cd1514     O1515   2.483       .  S
Cd1514     O1518   2.438       .  S
Cd1514     O1516   2.497       .  S
C1517      O1521   1.264       .  A
O1522      C1525   1.276       .  A
O1522     Cd1527   2.472       .  S
C1523      O1532   1.265       .  A
C1523      O1528   1.273       .  A
O1524     Cd1527   2.475       .  S
C1525      O1533   1.265       .  A
C1526      O1531   1.272       .  A
C1526      O1529   1.269       .  A
C1526      C1617   1.467       .  S
Cd1527     O1533   2.340       .  S
Cd1527     O1531   2.479       .  S
Cd1527     O1529   2.418       .  S
O1535      C1538   1.265       .  A
O1535     Cd1540   2.494       .  S
C1536      O1545   1.264       .  A
C1536      O1541   1.260       .  A
C1536      C1549   1.456       .  S
O1537      C1543   1.266       .  A
O1537     Cd1540   2.468       .  S
C1538      O1546   1.265       .  A
C1539      O1544   1.262       .  A
C1539      O1542   1.266       .  A
C1539      C1656   1.467       .  S
Cd1540     O1547   2.462       .  S
Cd1540     O1546   2.455       .  S
Cd1540     O1545   2.511       .  S
Cd1540     O1541   2.392       .  S
Cd1540     O1544   2.433       .  S
Cd1540     O1542   2.510       .  S
C1543      O1547   1.265       .  A
O1548      C1551   1.270       .  A
C1549      O1558   1.264       .  A
C1549      O1554   1.274       .  A
O1550      C1556   1.274       .  A
O1550     Cd1553   2.496       .  S
C1551      O1559   1.266       .  A
C1552      O1557   1.272       .  A
C1552      O1555   1.267       .  A
C1552      C1643   1.472       .  S
Cd1553     O1558   2.357       .  S
Cd1553     O1554   2.481       .  S
Cd1553     O1557   2.502       .  S
Cd1553     O1555   2.423       .  S
O1561      C1564   1.262       .  A
O1561     Cd1566   2.403       .  S
C1562      O1571   1.267       .  A
C1562      O1567   1.263       .  A
C1562      C1629   1.469       .  S
O1563      C1569   1.265       .  A
O1563     Cd1566   2.476       .  S
C1564      O1572   1.263       .  A
C1564      C1577   1.454       .  S
C1565      O1570   1.263       .  A
C1565      O1568   1.267       .  A
Cd1566     O1573   2.474       .  S
Cd1566     O1572   2.488       .  S
Cd1566     O1571   2.467       .  S
Cd1566     O1567   2.476       .  S
Cd1566     O1570   2.442       .  S
Cd1566     O1568   2.501       .  S
C1569      O1573   1.263       .  A
C1569      C1647   1.466       .  S
O1574      C1577   1.276       .  A
C1575      O1584   1.267       .  A
C1575      O1580   1.273       .  A
C1575      C1616   1.468       .  S
O1576      C1582   1.275       .  A
O1576     Cd1579   2.476       .  S
C1578      O1583   1.273       .  A
C1578      O1581   1.269       .  A
Cd1579     O1586   2.458       .  S
Cd1579     O1585   2.351       .  S
Cd1579     O1584   2.419       .  S
Cd1579     O1580   2.492       .  S
Cd1579     O1583   2.487       .  S
Cd1579     O1581   2.415       .  S
C1582      O1586   1.265       .  A
O1587      C1590   1.264       .  A
O1587     Cd1592   2.491       .  S
C1588      O1597   1.264       .  A
C1588      O1593   1.261       .  A
O1589      C1595   1.265       .  A
O1589     Cd1592   2.475       .  S
C1590      O1598   1.266       .  A
C1590      C1653   1.470       .  S
C1591      O1596   1.263       .  A
C1591      O1594   1.267       .  A
Cd1592     O1599   2.471       .  S
Cd1592     O1598   2.459       .  S
Cd1592     O1597   2.501       .  S
Cd1592     O1593   2.394       .  S
Cd1592     O1596   2.446       .  S
Cd1592     O1594   2.512       .  S
C1595      O1599   1.266       .  A
C1595      C1621   1.468       .  S
O1600      C1603   1.271       .  A
O1600     Cd1605   2.493       .  S
C1601      O1610   1.264   1_545  A
C1601      O1606   1.274       .  A
O1602      C1608   1.274       .  A
O1602     Cd1605   2.499       .  S
C1603      O1611   1.266       .  A
C1603      C1640   1.470       .  S
C1604      O1609   1.273       .  A
C1604      O1607   1.268       .  A
Cd1605     O1612   2.454       .  S
Cd1605     O1611   2.437       .  S
Cd1605     O1610   2.355       .  S
Cd1605     O1606   2.480   1_565  S
Cd1605     O1609   2.497       .  S
Cd1605     O1607   2.415       .  S
C1608      O1612   1.264       .  A
O1613      C1616   1.264       .  A
O1613     Cd1618   2.483       .  S
C1614      O1623   1.264       .  A
C1614      O1619   1.261       .  A
O1615      C1621   1.267       .  A
O1615     Cd1618   2.476       .  S
C1616      O1624   1.266       .  A
C1617      O1622   1.262       .  A
C1617      O1620   1.265       .  A
Cd1618     O1625   2.469       .  S
Cd1618     O1624   2.453       .  S
Cd1618     O1623   2.503       .  S
Cd1618     O1619   2.402       .  S
Cd1618     O1622   2.444       .  S
Cd1618     O1620   2.502       .  S
C1621      O1625   1.264       .  A
O1626      C1629   1.272       .  A
C1627      O1636   1.265   1_545  A
C1627      O1632   1.275       .  A
O1628      C1634   1.275       .  A
O1628     Cd1631   2.485       .  S
C1629      O1637   1.266       .  A
C1630      O1635   1.273       .  A
C1630      O1633   1.268       .  A
Cd1631     O1636   2.357       .  S
Cd1631     O1632   2.477   1_565  S
Cd1631     O1635   2.478       .  S
Cd1631     O1633   2.409       .  S
O1639      C1642   1.261       .  A
O1639     Cd1644   2.398       .  S
C1640      O1649   1.266       .  A
C1640      O1645   1.265       .  A
O1641      C1647   1.264       .  A
O1641     Cd1644   2.472       .  S
C1642      O1650   1.264       .  A
C1642      C1655   1.456       .  S
C1643      O1648   1.262       .  A
C1643      O1646   1.267       .  A
Cd1644     O1651   2.463       .  S
Cd1644     O1650   2.501       .  S
Cd1644     O1649   2.460       .  S
Cd1644     O1645   2.482       .  S
Cd1644     O1648   2.443       .  S
Cd1644     O1646   2.520       .  S
C1647      O1651   1.266       .  A
O1652      C1655   1.276       .  A
C1653      O1662   1.267       .  A
C1653      O1658   1.274       .  A
O1654      C1660   1.274       .  A
O1654     Cd1657   2.464       .  S
C1656      O1661   1.273       .  A
C1656      O1659   1.268       .  A
Cd1657     O1663   2.361       .  S
Cd1657     O1661   2.482       .  S
Cd1657     O1659   2.400       .  S
