geometry optimzed in LAMMPS
_audit_creation_date              2020-12-01 
_audit_creation_method            'lammps2cif' 
_symmetry_space_group_name_H-M    'P1' 
_symmetry_Int_Tables_number       1 
_symmetry_cell_setting            triclinic 
loop_ 
_symmetry_equiv_pos_as_xyz 
  x,y,z 
_cell_length_a                    49.56980175 
_cell_length_b                    49.55702579926452 
_cell_length_c                    49.49622699282475 
_cell_angle_alpha                 90.00195140275899 
_cell_angle_beta                  90.00580607921479 
_cell_angle_gamma                 89.99448870775885 
loop_ 
_atom_site_label 
_atom_site_type_symbol 
_atom_site_fract_x 
_atom_site_fract_y 
_atom_site_fract_z 
_atom_site_charge 
O1          O  0.89421426  0.52943419  0.85354722    -0.71200
O2          O  0.85884927  0.47472909  0.89431588    -0.71500
O3          O  0.89540671  0.47513331  0.85438215    -0.71300
O4          O  0.85792430  0.52911430  0.89351698    -0.71300
O5          O  0.82486306  0.52695510  0.86470982    -0.71300
O6          O  0.86386807  0.47526594  0.82382659    -0.71300
O7          O  0.82708166  0.47319362  0.86406988    -0.71200
O8          O  0.86146830  0.52876659  0.82429959    -0.71400
V9          V  0.87598722  0.50207818  0.87337390     1.35200
V10         V  0.84493095  0.50106508  0.84483920     1.35200
C11         C  0.88390599  0.53812832  0.83186591     0.78000
C12         C  0.83682570  0.46477002  0.88608582     0.78100
C13         C  0.88629821  0.46651665  0.83218597     0.77900
C14         C  0.83486415  0.53688025  0.88597660     0.77900
O15         O  0.71298700  0.64152584  0.06180081    -0.71200
O16         O  0.67517142  0.67992441  0.00730298    -0.71500
O17         O  0.71237155  0.64077574  0.00746995    -0.71300
O18         O  0.67599704  0.68056290  0.06174659    -0.71300
O19         O  0.70722922  0.71135107  0.06041792    -0.71300
O20         O  0.74454080  0.67061474  0.00729634    -0.71300
O21         O  0.70695350  0.71014064  0.00639161    -0.71200
O22         O  0.74474472  0.67179058  0.06106173    -0.71400
V23         V  0.69473324  0.66132011  0.03454189     1.35200
V24         V  0.72524431  0.69040910  0.03379044     1.35200
C25         C  0.73537922  0.65001185  0.07048359     0.78000
C26         C  0.68453052  0.70160939  0.99770376     0.78100
C27         C  0.73488905  0.64871063  0.99855981     0.77900
C28         C  0.68537979  0.70268046  0.07025368     0.77900
O29         O  0.50652657  0.86182891  0.85839052    -0.71200
O30         O  0.56033404  0.82188662  0.89600702    -0.71500
O31         O  0.56099999  0.86054925  0.85819943    -0.71300
O32         O  0.50597962  0.82324696  0.89626764    -0.71300
O33         O  0.50579133  0.79204937  0.86537760    -0.71300
O34         O  0.55949742  0.83042479  0.82630549    -0.71300
O35         O  0.55948303  0.79128573  0.86453992    -0.71200
O36         O  0.50557922  0.83102765  0.82713538    -0.71400
V37         V  0.53345058  0.84129266  0.87659462     1.35200
V38         V  0.53261699  0.81181414  0.84643344     1.35200
C39         C  0.49691948  0.85317293  0.83635432     0.78000
C40         C  0.56879236  0.79965278  0.88678327     0.78100
C41         C  0.56932907  0.85204009  0.83562705     0.77900
C42         C  0.49690295  0.80108547  0.88751905     0.77900
O43         O  0.67095213  0.02880708  0.70755486    -0.71200
O44         O  0.70759034  0.97143979  0.67182862    -0.71500
O45         O  0.66908598  0.97445951  0.70975745    -0.71300
O46         O  0.70960689  0.02587433  0.66957099    -0.71300
O47         O  0.74072392  0.02537658  0.70052424    -0.71300
O48         O  0.69954091  0.97511289  0.74135723    -0.71300
O49         O  0.73835684  0.97169402  0.70312365    -0.71200
O50         O  0.70163291  0.02870662  0.73894671    -0.71400
V51         V  0.68991307  0.00017448  0.69026528     1.35200
V52         V  0.71946633  0.00027978  0.72035385     1.35200
C53         C  0.67971709  0.03795024  0.72971581     0.78000
C54         C  0.72928814  0.96194272  0.68135840     0.78100
C55         C  0.67735071  0.96624530  0.73249323     0.77900
C56         C  0.73228308  0.03396326  0.67802192     0.77900
O57         O  0.00690185  0.63879752  0.70976719    -0.71200
O58         O  0.06133608  0.67699628  0.67162717    -0.71500
O59         O  0.06149231  0.63849506  0.70948201    -0.71300
O60         O  0.00702911  0.67724146  0.67175855    -0.71300
O61         O  0.00770446  0.70845552  0.70260743    -0.71300
O62         O  0.06129048  0.66893564  0.74109470    -0.71300
O63         O  0.06143672  0.70788085  0.70284724    -0.71200
O64         O  0.00726382  0.66972588  0.74092111    -0.71400
V65         V  0.03418831  0.65845928  0.69128329     1.35200
V66         V  0.03443090  0.68810378  0.72129469     1.35200
C67         C  0.99783474  0.64786044  0.73183660     0.78000
C68         C  0.07032021  0.69909736  0.68064276     0.78100
C69         C  0.07064773  0.64710898  0.73170998     0.77900
C70         C  0.99839896  0.69958848  0.68054391     0.77900
O71         O  0.86346881  0.79176265  0.56041092    -0.71200
O72         O  0.82388443  0.82978194  0.50649038    -0.71500
O73         O  0.86388902  0.79246165  0.50670759    -0.71300
O74         O  0.82337795  0.82885931  0.56058601    -0.71300
O75         O  0.85369779  0.86051644  0.56203567    -0.71300
O76         O  0.89349821  0.82482247  0.50672020    -0.71300
O77         O  0.85389094  0.86174362  0.50741538    -0.71200
O78         O  0.89334246  0.82387187  0.56113358    -0.71400
V79         V  0.84421226  0.81136919  0.53354648     1.35200
V80         V  0.87297850  0.84215913  0.53428272     1.35200
C81         C  0.88528847  0.80123576  0.56964846     0.78000
C82         C  0.83220223  0.85231884  0.49785566     0.78100
C83         C  0.88577608  0.80214162  0.49794161     0.77900
C84         C  0.83174333  0.85073005  0.57064234     0.77900
O85         O  0.50671345  0.18183252  0.89225438    -0.71200
O86         O  0.55723988  0.14199944  0.85075559    -0.71500
O87         O  0.56081244  0.17974073  0.88943097    -0.71300
O88         O  0.50318616  0.14424542  0.85381874    -0.71300
O89         O  0.50380562  0.17471291  0.82220740    -0.71300
O90         O  0.55956165  0.21193882  0.85962381    -0.71300
O91         O  0.55761762  0.17369479  0.82039804    -0.71200
O92         O  0.50575752  0.21295142  0.86129729    -0.71400
V93         V  0.53202052  0.16258942  0.87095024     1.35200
V94         V  0.53169773  0.19274133  0.84145490     1.35200
C95         C  0.49766282  0.20411549  0.88385300     0.78000
C96         C  0.56583695  0.15090432  0.82844185     0.78100
C97         C  0.56950442  0.20217828  0.88101760     0.77900
C98         C  0.49408334  0.15313925  0.83172950     0.77900
O99         O  0.71200459  0.36010076  0.00385243    -0.71200
O100        O  0.67281158  0.32333563  0.05882171    -0.71500
O101        O  0.71191516  0.36098800  0.05818359    -0.71300
O102        O  0.67304136  0.32262852  0.00437584    -0.71300
O103        O  0.70338648  0.29095456  0.00488295    -0.71300
O104        O  0.74242322  0.32946839  0.05864109    -0.71300
O105        O  0.70287465  0.29141224  0.05878851    -0.71200
O106        O  0.74287547  0.32895923  0.00497090    -0.71400
V107        V  0.69303132  0.34113001  0.03134079     1.35200
V108        V  0.72227666  0.31078431  0.03183389     1.35200
C109        C  0.73437451  0.35107739  0.99553540     0.78000
C110        C  0.68087252  0.30081365  0.06770464     0.78100
C111        C  0.73408122  0.35206345  0.06705765     0.77900
C112        C  0.68150788  0.30022746  0.99561505     0.77900
O113        O  0.82397742  0.47166440  0.20529386    -0.71200
O114        O  0.86252918  0.52627771  0.24309447    -0.71500
O115        O  0.82287657  0.52544668  0.20540342    -0.71300
O116        O  0.86356509  0.47253426  0.24299967    -0.71300
O117        O  0.89340914  0.47249915  0.21079502    -0.71300
O118        O  0.85356822  0.52654044  0.17403055    -0.71300
O119        O  0.89270712  0.52688786  0.21122565    -0.71200
O120        O  0.85429218  0.47231451  0.17355428    -0.71400
V121        V  0.84382048  0.49897949  0.22359636     1.35200
V122        V  0.87289573  0.49954902  0.19303439     1.35200
C123        C  0.83244533  0.46302019  0.18279621     0.78000
C124        C  0.88429004  0.53566723  0.23366490     0.78100
C125        C  0.83130971  0.53484552  0.18323198     0.77900
C126        C  0.88544549  0.46368417  0.23335230     0.77900
O127        O  0.00492299  0.67165338  0.32337808    -0.71200
O128        O  0.05987483  0.71095738  0.35976618    -0.71500
O129        O  0.05872307  0.67159125  0.32190469    -0.71300
O130        O  0.00614214  0.71111608  0.36134636    -0.71300
O131        O  0.00644702  0.68031660  0.39262369    -0.71300
O132        O  0.06011862  0.64159666  0.35393318    -0.71300
O133        O  0.06063398  0.68049382  0.39137175    -0.71200
O134        O  0.00579736  0.64126084  0.35503998    -0.71400
V135        V  0.03240221  0.69073128  0.34219812     1.35200
V136        V  0.03320065  0.66150296  0.37260788     1.35200
C137        C  0.99632066  0.64958947  0.33284834     0.78000
C138        C  0.06935335  0.70249205  0.38190933     0.78100
C139        C  0.06836134  0.64990500  0.33126552     0.77900
C140        C  0.99769286  0.70261489  0.38388879     0.77900
O141        O  0.17241466  0.82372054  0.55965456    -0.71200
O142        O  0.21199960  0.85949508  0.50474349    -0.71500
O143        O  0.17290945  0.82250521  0.50520745    -0.71300
O144        O  0.21172219  0.86089884  0.55928297    -0.71300
O145        O  0.24238662  0.82952949  0.55948941    -0.71300
O146        O  0.20270782  0.79034420  0.50685510    -0.71300
O147        O  0.24219884  0.82766300  0.50562904    -0.71200
O148        O  0.20272135  0.79199444  0.56056729    -0.71400
V149        V  0.19286481  0.84107000  0.53227371     1.35200
V150        V  0.22191234  0.81051669  0.53316569     1.35200
C151        C  0.18067767  0.80151631  0.56906599     0.78000
C152        C  0.23371130  0.84956866  0.49580524     0.78100
C153        C  0.18113232  0.79977754  0.49707153     0.77900
C154        C  0.23386960  0.85193263  0.56822697     0.77900
O155        O  0.36160743  0.02734627  0.74435952    -0.71200
O156        O  0.32273498  0.97353956  0.70558032    -0.71500
O157        O  0.36091393  0.97338423  0.74486422    -0.71300
O158        O  0.32355898  0.02752356  0.70549259    -0.71300
O159        O  0.35539343  0.02784136  0.67528919    -0.71300
O160        O  0.39148999  0.97180932  0.71342466    -0.71300
O161        O  0.35380661  0.97347624  0.67459514    -0.71200
O162        O  0.39308588  0.02621525  0.71379513    -0.71400
V163        V  0.34279473  0.00038924  0.72447245     1.35200
V164        V  0.37284690  0.99980811  0.69489897     1.35200
C165        C  0.38394535  0.03592868  0.73554105     0.78000
C166        C  0.33150981  0.96469996  0.68325214     0.78100
C167        C  0.38258259  0.96343381  0.73585926     0.77900
C168        C  0.33322001  0.03705456  0.68388198     0.77900
O169        O  0.74175110  0.97494462  0.36374380    -0.71200
O170        O  0.70422026  0.02889467  0.32399031    -0.71500
O171        O  0.74286136  0.02872629  0.36244036    -0.71300
O172        O  0.70306701  0.97507809  0.32502138    -0.71300
O173        O  0.67186314  0.97645616  0.35585618    -0.71300
O174        O  0.71220452  0.02958896  0.39384219    -0.71300
O175        O  0.67393008  0.03104498  0.35567218    -0.71200
O176        O  0.71013440  0.97526783  0.39417304    -0.71400
V177        V  0.72235441  0.00189548  0.34440507     1.35200
V178        V  0.69260941  0.00306662  0.37427408     1.35200
C179        C  0.73239371  0.96606117  0.38578058     0.78000
C180        C  0.68280797  0.03926283  0.33317358     0.78100
C181        C  0.73442725  0.03805152  0.38462950     0.77900
C182        C  0.68060814  0.96687549  0.33386393     0.77900
O183        O  0.50796739  0.82554090  0.24464814    -0.71200
O184        O  0.56306485  0.78975967  0.20509097    -0.71500
O185        O  0.56183479  0.82721697  0.24479301    -0.71300
O186        O  0.50924541  0.78801844  0.20482944    -0.71300
O187        O  0.50854044  0.81977256  0.17453895    -0.71300
O188        O  0.56078374  0.85908490  0.21462797    -0.71300
O189        O  0.56279646  0.82206437  0.17536642    -0.71200
O190        O  0.50637570  0.85682756  0.21389986    -0.71400
V191        V  0.53549921  0.80824420  0.22425173     1.35200
V192        V  0.53463196  0.83882728  0.19521704     1.35200
C193        C  0.49785761  0.84729130  0.23600200     0.78000
C194        C  0.57223571  0.79982770  0.18351940     0.78100
C195        C  0.57012957  0.84988628  0.23652353     0.77900
C196        C  0.50018618  0.79712645  0.18274571     0.77900
O197        O  0.20757497  0.52688672  0.82189361    -0.71200
O198        O  0.24651493  0.47223947  0.85920235    -0.71500
O199        O  0.20787416  0.47306759  0.82024153    -0.71300
O200        O  0.24583573  0.52599772  0.86110792    -0.71300
O201        O  0.21427622  0.52514611  0.89159754    -0.71300
O202        O  0.17713178  0.47156058  0.85153787    -0.71300
O203        O  0.21513618  0.47076949  0.88984757    -0.71200
O204        O  0.17647072  0.52593099  0.85282895    -0.71400
V205        V  0.22635622  0.49953418  0.84120843     1.35200
V206        V  0.19636994  0.49837807  0.87083851     1.35200
C207        C  0.18533726  0.53553811  0.83086080     0.78000
C208        C  0.23751849  0.46233394  0.88091717     0.78100
C209        C  0.18585874  0.46353648  0.82898543     0.77900
C210        C  0.23658260  0.53431297  0.88343515     0.77900
O211        O  0.32377680  0.67054087  0.06158286    -0.71200
O212        O  0.36236254  0.70842012  0.00716355    -0.71500
O213        O  0.32389396  0.66962952  0.00770861    -0.71300
O214        O  0.36212149  0.70942769  0.06099924    -0.71300
O215        O  0.39308024  0.67835878  0.06194366    -0.71300
O216        O  0.35518147  0.63888596  0.00808650    -0.71300
O217        O  0.39326888  0.67728169  0.00746576    -0.71200
O218        O  0.35517580  0.63991664  0.06248032    -0.71400
V219        V  0.34363980  0.68889714  0.03436128     1.35200
V220        V  0.37357874  0.65922324  0.03496930     1.35200
C221        C  0.33287535  0.64869368  0.07113000     0.78000
C222        C  0.38448042  0.69938161  0.99827307     0.78100
C223        C  0.33287807  0.64737301  0.99907977     0.77900
C224        C  0.38415900  0.70070668  0.07040868     0.77900
O225        O  0.21210548  0.47251470  0.17619676    -0.71200
O226        O  0.17515479  0.52772017  0.21445064    -0.71500
O227        O  0.21340941  0.52695660  0.17630432    -0.71300
O228        O  0.17392224  0.47339323  0.21431545    -0.71300
O229        O  0.20436121  0.47352624  0.24596130    -0.71300
O230        O  0.24491170  0.52535323  0.20683598    -0.71300
O231        O  0.20625080  0.52726364  0.24543474    -0.71200
O232        O  0.24284289  0.47156236  0.20752827    -0.71400
V233        V  0.19425388  0.50014928  0.19591345     1.35200
V234        V  0.22399334  0.49945200  0.22582861     1.35200
C235        C  0.23379321  0.46273611  0.18535229     0.78000
C236        C  0.18427242  0.53666682  0.23653768     0.78100
C237        C  0.23603577  0.53494425  0.18491602     0.77900
C238        C  0.18231639  0.46465052  0.23675607     0.77900
O239        O  0.32333888  0.32899971  0.00595355    -0.71200
O240        O  0.35764963  0.28873949  0.06148327    -0.71500
O241        O  0.32035765  0.32850978  0.05984742    -0.71300
O242        O  0.36058538  0.28926099  0.00767294    -0.71300
O243        O  0.39204061  0.31981239  0.00911154    -0.71300
O244        O  0.35257256  0.35817396  0.06244548    -0.71300
O245        O  0.38946378  0.31888236  0.06352506    -0.71200
O246        O  0.35516268  0.35912105  0.00796456    -0.71400
V247        V  0.34108231  0.30948011  0.03378597     1.35200
V248        V  0.37169042  0.33840582  0.03573004     1.35200
C249        C  0.33340809  0.35085946  0.99752635     0.78000
C250        C  0.37949509  0.29692171  0.07177685     0.78100
C251        C  0.32965533  0.34998205  0.07000153     0.77900
C252        C  0.38315186  0.29791741  0.99956151     0.77900
O253        O  0.55972069  0.17095530  0.24149289    -0.71200
O254        O  0.50384638  0.20822126  0.20478548    -0.71500
O255        O  0.50586430  0.16843276  0.24212328    -0.71300
O256        O  0.55759564  0.21057087  0.20374817    -0.71300
O257        O  0.55836079  0.18026617  0.17200654    -0.71300
O258        O  0.50681215  0.13838387  0.21014553    -0.71300
O259        O  0.50405533  0.17779864  0.17313809    -0.71200
O260        O  0.56110695  0.14111837  0.20933309    -0.71400
V261        V  0.53177591  0.18894482  0.22242853     1.35200
V262        V  0.53257138  0.15998661  0.19177362     1.35200
C263        C  0.56985115  0.14968893  0.23177599     0.78000
C264        C  0.49457030  0.19948013  0.18270256     0.78100
C265        C  0.49772501  0.14614210  0.23268240     0.77900
C266        C  0.56653103  0.20260506  0.18115503     0.77900
O267        O  0.00498889  0.31917761  0.67533271    -0.71200
O268        O  0.05794822  0.35986116  0.71266351    -0.71500
O269        O  0.05936566  0.32086563  0.67494226    -0.71300
O270        O  0.00387108  0.35780448  0.71272639    -0.71300
O271        O  0.00551958  0.32776566  0.74471177    -0.71300
O272        O  0.05984427  0.28988097  0.70602864    -0.71300
O273        O  0.05929234  0.32933146  0.74417292    -0.71200
O274        O  0.00598920  0.28861987  0.70684911    -0.71400
V275        V  0.03161695  0.33878943  0.69451340     1.35200
V276        V  0.03270233  0.30947259  0.72483206     1.35200
C277        C  0.99633269  0.29716959  0.68483874     0.78000
C278        C  0.06719055  0.35182632  0.73503380     0.78100
C279        C  0.06860559  0.29878723  0.68375199     0.77900
C280        C  0.99555773  0.34925799  0.73525841     0.77900
O281        O  0.85720100  0.14292770  0.50268185    -0.71200
O282        O  0.89523112  0.17730915  0.55979657    -0.71500
O283        O  0.85800539  0.13806995  0.55690092    -0.71300
O284        O  0.89429709  0.18200144  0.50542721    -0.71300
O285        O  0.86232674  0.21192236  0.50828816    -0.71300
O286        O  0.82666310  0.16853692  0.56051858    -0.71300
O287        O  0.86400045  0.20806400  0.56189706    -0.71200
O288        O  0.82485545  0.17228801  0.50684861    -0.71400
V289        V  0.87561576  0.16067999  0.53127582     1.35200
V290        V  0.84509208  0.18960476  0.53431057     1.35200
C291        C  0.83426731  0.15145845  0.49556541     0.78000
C292        C  0.88616283  0.19874736  0.57025197     0.78100
C293        C  0.83602474  0.14580638  0.56731490     0.77900
C294        C  0.88445325  0.20436920  0.49813584     0.77900
O295        O  0.24405969  0.17103744  0.50709606    -0.71200
O296        O  0.20559372  0.21114866  0.56044363    -0.71500
O297        O  0.24549934  0.17371129  0.56095039    -0.71300
O298        O  0.20419676  0.20871779  0.50666350    -0.71300
O299        O  0.17480779  0.17618756  0.50791695    -0.71300
O300        O  0.21471736  0.14263312  0.56427876    -0.71300
O301        O  0.17530362  0.17948078  0.56212845    -0.71200
O302        O  0.21431935  0.13895016  0.50994866    -0.71400
V303        V  0.22427153  0.19053239  0.53380414     1.35200
V304        V  0.19539837  0.15992124  0.53598873     1.35200
C305        C  0.23594619  0.14791681  0.49983684     0.78000
C306        C  0.18366505  0.20222467  0.57003034     0.78100
C307        C  0.23707618  0.15226401  0.57185192     0.77900
C308        C  0.18230350  0.19863789  0.49837100     0.77900
O309        O  0.35649106  0.97084729  0.39526963    -0.71200
O310        O  0.39478574  0.02503778  0.35689842    -0.71500
O311        O  0.35580327  0.02535038  0.39453241    -0.71300
O312        O  0.39533168  0.97057351  0.35793166    -0.71300
O313        O  0.36512269  0.97008572  0.32609658    -0.71300
O314        O  0.32503614  0.02412376  0.36326258    -0.71300
O315        O  0.36455543  0.02392931  0.32508340    -0.71200
O316        O  0.32594464  0.97033924  0.36372519    -0.71400
V317        V  0.37500575  0.99799538  0.37554973     1.35200
V318        V  0.34576599  0.99720809  0.34515520     1.35200
C319        C  0.33475299  0.96138206  0.38589132     0.78000
C320        C  0.38643335  0.03327409  0.33422079     0.78100
C321        C  0.33344889  0.03362575  0.38544917     0.77900
C322        C  0.38689372  0.96100551  0.33580878     0.77900
O323        O  0.00831126  0.36002157  0.35278239    -0.71200
O324        O  0.05972665  0.32134856  0.39430624    -0.71500
O325        O  0.06235290  0.35826318  0.35493643    -0.71300
O326        O  0.00545023  0.32320483  0.39216644    -0.71300
O327        O  0.00500526  0.29168158  0.36161308    -0.71300
O328        O  0.06281767  0.32606090  0.32507594    -0.71300
O329        O  0.05877807  0.28872313  0.36495706    -0.71200
O330        O  0.00929824  0.32875930  0.32196900    -0.71400
V331        V  0.03397252  0.34007008  0.37296597     1.35200
V332        V  0.03402346  0.30937869  0.34401783     1.35200
C333        C  0.00039600  0.35119490  0.33019281     0.78000
C334        C  0.06770106  0.29829043  0.38689132     0.78100
C335        C  0.07182117  0.34840192  0.33342691     0.77900
C336        C  0.99553397  0.30152137  0.38317791     0.77900
C337        C  0.14726785  0.24592424  0.45929336     0.30300
C338        C  0.13937593  0.27183383  0.45103723    -0.36000
C339        C  0.11822634  0.27298014  0.43225924     0.16300
C340        C  0.10600091  0.25018788  0.42189765     0.22100
C341        C  0.11360247  0.22427482  0.43050024    -0.34100
C342        C  0.13446420  0.22314106  0.44963960     0.16200
O343        O  0.16626935  0.24021508  0.47702703    -0.26200
C344        C  0.16543260  0.21345637  0.47902631     0.06000
C345        C  0.14593145  0.20172836  0.46258003    -0.31000
O346        O  0.08692048  0.25598576  0.40422927    -0.22900
C347        C  0.08667976  0.28283194  0.40360143    -0.02900
C348        C  0.10558532  0.29449750  0.42075250    -0.17300
H349        H  0.14890350  0.28986128  0.45890502     0.20700
H350        H  0.10378658  0.20626666  0.42295794     0.19100
H351        H  0.14083419  0.18057367  0.46065521     0.19000
H352        H  0.10952657  0.31573080  0.42406880     0.14900
C353        C  0.26067038  0.10090038  0.45276461     0.30300
C354        C  0.25945452  0.07881195  0.43498975    -0.36000
C355        C  0.28376321  0.07158895  0.42231482     0.16300
C356        C  0.30778544  0.08475128  0.42733270     0.22100
C357        C  0.30890613  0.10711892  0.44476209    -0.34100
C358        C  0.28447621  0.11471000  0.45698166     0.16200
O359        O  0.24049496  0.11074715  0.46713887    -0.26200
C360        C  0.25137133  0.13145383  0.48039700     0.06000
C361        C  0.27867715  0.13492093  0.47479805    -0.31000
O362        O  0.32840046  0.07349757  0.41471342    -0.22900
C363        C  0.31734857  0.05325767  0.40091038    -0.02900
C364        C  0.28960945  0.05120246  0.40472446    -0.17300
H365        H  0.24087685  0.06787030  0.43145738     0.20700
H366        H  0.32760243  0.11769569  0.44875039     0.19100
H367        H  0.29237191  0.14973642  0.48318277     0.19000
H368        H  0.27601917  0.03607112  0.39674244     0.14900
C369        C  0.94602658  0.27887688  0.42811389     0.30300
C370        C  0.92945132  0.27981106  0.45110065    -0.36000
C371        C  0.91749018  0.25529663  0.45873410     0.16300
C372        C  0.92188802  0.23149719  0.44489015     0.22100
C373        C  0.93775542  0.23075814  0.42150127    -0.34100
C374        C  0.94943877  0.25525368  0.41371903     0.16200
O375        O  0.96116963  0.29867767  0.41878709    -0.26200
C376        C  0.97410067  0.28759039  0.39799732     0.06000
C377        C  0.96734995  0.26074472  0.39370153    -0.31000
O378        O  0.91073292  0.21053013  0.45680878    -0.22900
C379        C  0.89852545  0.22107456  0.47823769    -0.02900
C380        C  0.90181800  0.24886028  0.48042533    -0.17300
H381        H  0.92685845  0.29811782  0.46276925     0.20700
H382        H  0.94154677  0.21214298  0.41067773     0.19100
H383        H  0.97578349  0.24685278  0.37907551     0.19000
H384        H  0.89478738  0.26207733  0.49635873     0.14900
C385        C  0.91669197  0.24531838  0.61326961     0.30300
C386        C  0.92397533  0.27113516  0.62212940    -0.36000
C387        C  0.94387107  0.27212703  0.64215500     0.16300
C388        C  0.95530404  0.24928109  0.65331844     0.22100
C389        C  0.94797308  0.22340899  0.64445376    -0.34100
C390        C  0.92862346  0.22243551  0.62381253     0.16200
O391        O  0.89976462  0.23985283  0.59355070    -0.26200
C392        C  0.90118489  0.21319751  0.59111633     0.06000
C393        C  0.91884844  0.20121225  0.60932208    -0.31000
O394        O  0.97459085  0.25502654  0.67073914    -0.22900
C395        C  0.97572878  0.28183119  0.67031528    -0.02900
C396        C  0.95709584  0.29355296  0.65296561    -0.17300
H397        H  0.91551605  0.28922039  0.61322948     0.20700
H398        H  0.95752034  0.20537515  0.65228698     0.19100
H399        H  0.92396380  0.18006287  0.61129302     0.19000
H400        H  0.95438328  0.31473387  0.64832879     0.14900
C401        C  0.13868391  0.22689505  0.61876587     0.30300
C402        C  0.11818603  0.22529357  0.63825446    -0.36000
C403        C  0.10901567  0.24993930  0.64872609     0.16300
C404        C  0.11887143  0.27454576  0.64015679     0.22100
C405        C  0.13971900  0.27612741  0.62098622    -0.34100
C406        C  0.14929909  0.25142365  0.61091584     0.16200
O407        O  0.14956179  0.20641780  0.60569608    -0.26200
C408        C  0.16775057  0.21788423  0.58960047     0.06000
C409        C  0.16860247  0.24584661  0.59207148    -0.31000
O410        O  0.10622129  0.29508156  0.65149651    -0.22900
C411        C  0.08846668  0.28343236  0.66796360    -0.02900
C412        C  0.08939055  0.25540375  0.66718737    -0.17300
H413        H  0.10975563  0.20615221  0.64459692     0.20700
H414        H  0.14769235  0.29529636  0.61415746     0.19100
H415        H  0.18091671  0.26000759  0.58087538     0.19000
H416        H  0.07667540  0.24118961  0.67785876     0.14900
C417        C  0.42131540  0.07059511  0.28542556     0.30300
C418        C  0.43109152  0.07673913  0.25951976    -0.36000
C419        C  0.44968632  0.09804732  0.25802275     0.16300
C420        C  0.45776897  0.11256830  0.28041378     0.22100
C421        C  0.44831496  0.10614581  0.30633144    -0.34100
C422        C  0.43007731  0.08459430  0.30789131     0.16200
O423        O  0.40416602  0.05120428  0.29161248    -0.26200
C424        C  0.40227178  0.05259989  0.31839702     0.06000
C425        C  0.41804413  0.07286249  0.32964063    -0.31000
O426        O  0.47522029  0.13173142  0.27440794    -0.22900
C427        C  0.47862316  0.12929180  0.24787123    -0.02900
C428        C  0.46335564  0.10857808  0.23659034    -0.17300
H429        H  0.42484907  0.06550811  0.24180984     0.20700
H430        H  0.45496450  0.11702596  0.32411241     0.19100
H431        H  0.42038093  0.07804344  0.35076756     0.19000
H432        H  0.46255696  0.10219142  0.21568148     0.14900
C433        C  0.42018779  0.27151639  0.12348878     0.30300
C434        C  0.43947788  0.27275377  0.14416714    -0.36000
C435        C  0.45026058  0.24797805  0.15251874     0.16300
C436        C  0.44283572  0.22366826  0.14108241     0.22100
C437        C  0.42292511  0.22236878  0.12098741    -0.34100
C438        C  0.41188491  0.24712211  0.11286206     0.16200
O439        O  0.40935749  0.29230073  0.11091683    -0.26200
C440        C  0.39350406  0.28105606  0.09240450     0.06000
C441        C  0.39401043  0.25302172  0.09283403    -0.31000
O442        O  0.45720637  0.20325145  0.15030960    -0.22900
C443        C  0.47366850  0.21460070  0.16822313    -0.02900
C444        C  0.47012624  0.24232836  0.17060378    -0.17300
H445        H  0.44632926  0.29178168  0.15246889     0.20700
H446        H  0.41712485  0.20346426  0.11166567     0.19100
H447        H  0.38409484  0.23913919  0.07916370     0.19000
H448        H  0.48144808  0.25638929  0.18293184     0.14900
C449        C  0.25731865  0.41264354  0.14143023     0.30300
C450        C  0.25575661  0.39347030  0.12062912    -0.36000
C451        C  0.28046242  0.38341473  0.11117030     0.16300
C452        C  0.30502486  0.39197750  0.12116888     0.22100
C453        C  0.30655268  0.41060017  0.14242391    -0.34100
C454        C  0.28186007  0.42030711  0.15217981     0.16200
O455        O  0.23694577  0.42611583  0.15201993    -0.26200
C456        C  0.24861870  0.44218940  0.17010766     0.06000
C457        C  0.27645571  0.43924327  0.17129303    -0.31000
O458        O  0.32561440  0.38131785  0.10812852    -0.22900
C459        C  0.31407751  0.36532865  0.08990934    -0.02900
C460        C  0.28605957  0.36566607  0.09095022    -0.17300
H461        H  0.23664709  0.38732127  0.11195749     0.20700
H462        H  0.32570200  0.41753399  0.15038381     0.19100
H463        H  0.29072446  0.45056403  0.18338371     0.19000
H464        H  0.27193675  0.35513582  0.07800317     0.14900
C465        C  0.12108070  0.39207653  0.30872755     0.30300
C466        C  0.14085263  0.41219443  0.31019692    -0.36000
C467        C  0.14954530  0.42272301  0.28545077     0.16300
C468        C  0.13909926  0.41447206  0.26093338     0.22100
C469        C  0.11966475  0.39397871  0.25943105    -0.34100
C470        C  0.11139798  0.38301449  0.28417884     0.16200
O471        O  0.10900101  0.38052886  0.32939519    -0.26200
C472        C  0.09186784  0.36339923  0.31791610     0.06000
C473        C  0.09255318  0.36390758  0.28986162    -0.31000
O474        O  0.14918575  0.42810653  0.24043118    -0.22900
C475        C  0.16662468  0.44489233  0.25201540    -0.02900
C476        C  0.16781662  0.44237016  0.27992360    -0.17300
H477        H  0.14861113  0.41944175  0.32933349     0.20700
H478        H  0.11131023  0.38730459  0.24033701     0.19100
H479        H  0.07984158  0.35299600  0.27580902     0.19000
H480        H  0.17984101  0.45390313  0.29408360     0.14900
C481        C  0.30872892  0.60480276  0.12095751     0.30300
C482        C  0.31021085  0.58421384  0.14036513    -0.36000
C483        C  0.28549301  0.57523940  0.15082030     0.16300
C484        C  0.26098798  0.58547368  0.14237959     0.22100
C485        C  0.25954864  0.60647281  0.12344688    -0.34100
C486        C  0.28427068  0.61575262  0.11333299     0.16200
O487        O  0.32916197  0.61520349  0.10745163    -0.26200
C488        C  0.31765592  0.63337182  0.09135840     0.06000
C489        C  0.28980763  0.63474518  0.09427003    -0.31000
O490        O  0.24033489  0.57284363  0.15339363    -0.22900
C491        C  0.25176923  0.55465948  0.16948791    -0.02900
C492        C  0.27980195  0.55531566  0.16888570    -0.17300
H493        H  0.32926295  0.57541814  0.14646752     0.20700
H494        H  0.24044573  0.61462316  0.11664668     0.19100
H495        H  0.27564655  0.64704270  0.08305018     0.19000
H496        H  0.29384366  0.54224579  0.17935625     0.14900
C497        C  0.14178619  0.41410662  0.80480809     0.30300
C498        C  0.12334309  0.39271828  0.80671978    -0.36000
C499        C  0.11024075  0.38546839  0.78269089     0.16300
C500        C  0.11452452  0.39876574  0.75856065     0.22100
C501        C  0.13311375  0.42004484  0.75661344    -0.34100
C502        C  0.14675407  0.42683081  0.78049803     0.16200
O503        O  0.15553256  0.42479563  0.82492552    -0.26200
C504        C  0.16997763  0.44417671  0.81325521     0.06000
C505        C  0.16549913  0.44630180  0.78561188    -0.31000
O506        O  0.09986245  0.38883477  0.73868056    -0.22900
C507        C  0.08638538  0.36861945  0.75011675    -0.02900
C508        C  0.09197320  0.36560767  0.77748496    -0.17300
H509        H  0.11946837  0.38245032  0.82565026     0.20700
H510        H  0.13676127  0.43051667  0.73774888     0.19100
H511        H  0.17368268  0.46104022  0.77169112     0.19000
H512        H  0.08363657  0.35103591  0.79148855     0.14900
C513        C  0.26067308  0.58346014  0.92830099     0.30300
C514        C  0.25917987  0.60433216  0.94744137    -0.36000
C515        C  0.28391427  0.61344296  0.95783583     0.16300
C516        C  0.30836753  0.60236371  0.95037344     0.22100
C517        C  0.30987061  0.58185564  0.93093252    -0.34100
C518        C  0.28523551  0.57317280  0.92011527     0.16200
O519        O  0.24013109  0.57132683  0.91643056    -0.26200
C520        C  0.25181581  0.55352741  0.90001733     0.06000
C521        C  0.27978667  0.55384779  0.90139899    -0.31000
O522        O  0.32886481  0.61292166  0.96366442    -0.22900
C523        C  0.31746135  0.63136246  0.97948840    -0.02900
C524        C  0.28957267  0.63271623  0.97662052    -0.17300
H525        H  0.24006863  0.61273188  0.95394134     0.20700
H526        H  0.32894789  0.57310878  0.92480265     0.19100
H527        H  0.29396870  0.54102100  0.89080848     0.19000
H528        H  0.27548759  0.64539695  0.98751196     0.14900
C529        C  0.28851408  0.38171487  0.95264918     0.30300
C530        C  0.26308269  0.38818410  0.94214589    -0.36000
C531        C  0.26243388  0.40913395  0.92317608     0.16300
C532        C  0.28534203  0.42236690  0.91444929     0.22100
C533        C  0.31087994  0.41585263  0.92495222    -0.34100
C534        C  0.31141911  0.39536240  0.94456198     0.16200
O535        O  0.29338404  0.36393838  0.97181791    -0.26200
C536        C  0.31967724  0.36642731  0.97640379     0.06000
C537        C  0.33200462  0.38570592  0.96009687    -0.31000
O538        O  0.27977060  0.44220531  0.89752209    -0.22900
C539        C  0.25295092  0.44185952  0.89580389    -0.02900
C540        C  0.24112914  0.42174478  0.91132866    -0.17300
H541        H  0.24488412  0.37826292  0.94909897     0.20700
H542        H  0.32890271  0.42672068  0.91904053     0.19100
H543        H  0.35294408  0.39193913  0.96003018     0.19000
H544        H  0.21985877  0.41758071  0.91408908     0.14900
C545        C  0.45080143  0.77292028  0.13822199     0.30300
C546        C  0.43117049  0.77453134  0.11784448    -0.36000
C547        C  0.41950469  0.75000140  0.10986612     0.16300
C548        C  0.42705209  0.72550278  0.12079816     0.22100
C549        C  0.44623932  0.72395989  0.14158960    -0.34100
C550        C  0.45758117  0.74853374  0.14987258     0.16200
O551        O  0.46487079  0.79321334  0.14816455    -0.26200
C552        C  0.48052289  0.78174247  0.16674742     0.06000
C553        C  0.47680858  0.75399719  0.16876339    -0.31000
O554        O  0.41522609  0.70491182  0.10877179    -0.22900
C555        C  0.39950427  0.71640400  0.09028186    -0.02900
C556        C  0.40110452  0.74441665  0.09019832    -0.17300
H557        H  0.42570931  0.79354063  0.10852943     0.20700
H558        H  0.45230611  0.70485925  0.15032567     0.19100
H559        H  0.48724807  0.73987442  0.18177998     0.19000
H560        H  0.39131105  0.75844704  0.07659153     0.14900
C561        C  0.45780325  0.87927069  0.28467560     0.30300
C562        C  0.45135819  0.88889646  0.31058380    -0.36000
C563        C  0.43090212  0.90846196  0.31183644     0.16300
C564        C  0.41721422  0.91733893  0.28922252     0.22100
C565        C  0.42363942  0.90771217  0.26337338    -0.38900
C566        C  0.44458028  0.88876366  0.26203642     0.16200
O567        O  0.47758822  0.86252290  0.27857801    -0.26200
C568        C  0.47725684  0.86164665  0.25170289     0.06000
C569        C  0.45719397  0.87758979  0.24031749    -0.31000
O570        O  0.39954289  0.93640709  0.29481541    -0.22900
C571        C  0.40216704  0.94013920  0.32128495    -0.02900
C572        C  0.42139780  0.92332718  0.33299511    -0.17300
H573        H  0.46227411  0.88237816  0.32839562     0.20700
H574        H  0.41370639  0.91529952  0.24540814     0.19100
H575        H  0.45307697  0.88105138  0.21910735     0.19000
H576        H  0.42776672  0.92256623  0.35391224     0.14900
C577        C  0.76021466  0.08656884  0.42882600     0.30300
C578        C  0.75955308  0.10468175  0.45050850    -0.36000
C579        C  0.78417386  0.11669480  0.45730539     0.16300
C580        C  0.80801667  0.11088893  0.44408951     0.22100
C581        C  0.80857973  0.09318427  0.42196187    -0.34100
C582        C  0.78379529  0.08148215  0.41485920     0.16200
O583        O  0.73973688  0.07220044  0.41989497    -0.26200
C584        C  0.75019760  0.05800045  0.39968734     0.06000
C585        C  0.77748919  0.06303456  0.39547595    -0.31000
O586        O  0.82900431  0.12275921  0.45538754    -0.22900
C587        C  0.81823376  0.13675426  0.47563368    -0.02900
C588        C  0.79046334  0.13391693  0.47766613    -0.17300
H589        H  0.74119055  0.10870878  0.46168342     0.20700
H590        H  0.82713103  0.08838285  0.41142929     0.19100
H591        H  0.79087601  0.05372461  0.38091208     0.19000
H592        H  0.77712051  0.14215222  0.49291010     0.14900
C593        C  0.63868354  0.91538953  0.30932855     0.30300
C594        C  0.62059567  0.89361077  0.31066047    -0.36000
C595        C  0.61106203  0.88382795  0.28580030     0.16300
C596        C  0.61846266  0.89503097  0.26135677     0.22100
C597        C  0.63705918  0.91630175  0.25999502    -0.34100
C598        C  0.64689746  0.92577774  0.28478675     0.16200
O599        O  0.64927995  0.92846270  0.33002386    -0.26200
C600        C  0.66486810  0.94705276  0.31848816     0.06000
C601        C  0.66429298  0.94622657  0.29043915    -0.31000
O602        O  0.60544799  0.88427067  0.24077748    -0.22900
C603        C  0.58985461  0.86558902  0.25209934    -0.02900
C604        C  0.59268924  0.86418605  0.28002921    -0.17300
H605        H  0.61398188  0.88523809  0.32976313     0.20700
H606        H  0.64300666  0.92524878  0.24093093     0.19100
H607        H  0.67458663  0.95936578  0.27631813     0.19000
H608        H  0.58173856  0.85153354  0.29409515     0.14900
C609        C  0.65102736  0.07948966  0.28447402     0.30300
C610        C  0.64184017  0.08598436  0.25845395    -0.36000
C611        C  0.62240450  0.10648755  0.25688794     0.16300
C612        C  0.61317414  0.12022104  0.27932329     0.22100
C613        C  0.62242015  0.11378499  0.30536616    -0.34100
C614        C  0.64129532  0.09272764  0.30700241     0.16200
O615        O  0.66761664  0.05963366  0.29069757    -0.26200
C616        C  0.66820325  0.05983033  0.31756359     0.06000
C617        C  0.65221117  0.07997360  0.32884300    -0.31000
O618        O  0.59409192  0.13778366  0.27332001    -0.22900
C619        C  0.59082028  0.13501141  0.24676647    -0.02900
C620        C  0.60788265  0.11582250  0.23545636    -0.17300
H621        H  0.64856082  0.07502716  0.24075612     0.20700
H622        H  0.61458586  0.12373245  0.32320412     0.19100
H623        H  0.64863002  0.08411070  0.35002297     0.19000
H624        H  0.60890364  0.10923527  0.21462336     0.14900
C625        C  0.26290614  0.11283725  0.62435078     0.30300
C626        C  0.26169927  0.09489475  0.64619486    -0.36000
C627        C  0.28616385  0.08293159  0.65375497     0.16300
C628        C  0.31018541  0.08804559  0.64059270     0.22100
C629        C  0.31154692  0.10665550  0.61926137    -0.34100
C630        C  0.28709044  0.11885552  0.61186980     0.16200
O631        O  0.24211800  0.12430587  0.61236302    -0.26200
C632        C  0.25319090  0.13831375  0.59232974     0.06000
C633        C  0.28110875  0.13594040  0.59117601    -0.31000
O634        O  0.33011815  0.07283118  0.64955987    -0.22900
C635        C  0.31872263  0.05810115  0.66893090    -0.02900
C636        C  0.29150103  0.06369732  0.67257855    -0.17300
H637        H  0.24280918  0.08981829  0.65596024     0.20700
H638        H  0.33018681  0.11062891  0.60854649     0.19100
H639        H  0.29472201  0.14414185  0.57616212     0.19000
H640        H  0.27745008  0.05408808  0.68629348     0.14900
C641        C  0.25913621  0.89398600  0.61929667     0.30300
C642        C  0.25793659  0.91192535  0.64122802    -0.36000
C643        C  0.28264369  0.92278895  0.64981147     0.16300
C644        C  0.30682517  0.91679078  0.63735027     0.22100
C645        C  0.30810118  0.89843351  0.61578517    -0.34100
C646        C  0.28346264  0.88718537  0.60753949     0.16200
O647        O  0.23840310  0.88239562  0.60722359    -0.26200
C648        C  0.24967181  0.86753718  0.58787770     0.06000
C649        C  0.27764078  0.86956773  0.58723216    -0.31000
O650        O  0.32722969  0.93045782  0.64762872    -0.22900
C651        C  0.31606400  0.94505250  0.66724473    -0.02900
C652        C  0.28840080  0.94099772  0.66963664    -0.17300
H653        H  0.23898728  0.91736819  0.65068213     0.20700
H654        H  0.32696288  0.89354926  0.60586091     0.19100
H655        H  0.29150897  0.86027187  0.57311674     0.19000
H656        H  0.27445563  0.95081628  0.68331388     0.14900
C657        C  0.28685850  0.91958565  0.41588427     0.30300
C658        C  0.26082304  0.91170529  0.42344561    -0.36000
C659        C  0.25931795  0.89144268  0.44305162     0.16300
C660        C  0.28186644  0.87916052  0.45391582     0.22100
C661        C  0.30794553  0.88698281  0.44626491    -0.34100
C662        C  0.30945925  0.90786385  0.42724826     0.16200
O663        O  0.29287598  0.93946600  0.39935418    -0.26200
C664        C  0.31960419  0.94079871  0.40050763     0.06000
C665        C  0.33109177  0.92169686  0.41752910    -0.31000
O666        O  0.27575165  0.86188147  0.47317560    -0.22900
C667        C  0.24904358  0.86350960  0.47487615    -0.02900
C668        C  0.23770035  0.88148822  0.45662408    -0.17300
H669        H  0.24299857  0.92155793  0.41549671     0.20700
H670        H  0.32578142  0.87828521  0.45544202     0.19100
H671        H  0.35220511  0.91878546  0.42233865     0.19000
H672        H  0.21670623  0.88713848  0.45445164     0.14900
C673        C  0.11859105  0.72728782  0.42587166     0.30300
C674        C  0.13737577  0.72594540  0.44697365    -0.36000
C675        C  0.14754017  0.75068725  0.45607525     0.16300
C676        C  0.13944546  0.77516840  0.44549947     0.22100
C677        C  0.12111499  0.77647950  0.42390737    -0.34100
C678        C  0.11125255  0.75165185  0.41449320     0.16200
O679        O  0.10528379  0.70675612  0.41549866    -0.26200
C680        C  0.08957113  0.71801337  0.39688640     0.06000
C681        C  0.09255812  0.74586714  0.39515749    -0.31000
O682        O  0.15019842  0.79584698  0.45840000    -0.22900
C683        C  0.16572820  0.78434948  0.47707538    -0.02900
C684        C  0.16501519  0.75634550  0.47645563    -0.17300
H685        H  0.14318461  0.70694835  0.45610307     0.20700
H686        H  0.11452989  0.79553717  0.41545673     0.19100
H687        H  0.08148638  0.75988229  0.38255341     0.19000
H688        H  0.17512227  0.74227411  0.48978858     0.14900
C689        C  0.11961767  0.60744919  0.30761991     0.30300
C690        C  0.14054301  0.58846384  0.30951808    -0.36000
C691        C  0.15072411  0.57875169  0.28492917     0.16300
C692        C  0.14066011  0.58683116  0.26020242     0.22100
C693        C  0.12020956  0.60628747  0.25830059    -0.34100
C694        C  0.11032947  0.61630056  0.28285650     0.16200
O695        O  0.10621217  0.61816892  0.32797399    -0.26200
C696        C  0.08848905  0.63445111  0.31606954     0.06000
C697        C  0.09021734  0.63425952  0.28804976    -0.31000
O698        O  0.15152154  0.57351873  0.23988781    -0.22900
C699        C  0.16913624  0.55707518  0.25169488    -0.02900
C700        C  0.16971112  0.55958014  0.27967489    -0.17300
H701        H  0.14793509  0.58129413  0.32882533     0.20700
H702        H  0.11210066  0.61269166  0.23900934     0.19100
H703        H  0.07775226  0.64499375  0.27364557     0.19000
H704        H  0.18133086  0.54791581  0.29405943     0.14900
C705        C  0.95554289  0.61646861  0.28555241     0.30300
C706        C  0.94664485  0.60907780  0.25966391    -0.36000
C707        C  0.92789102  0.58790096  0.25857225     0.16300
C708        C  0.91812951  0.57524849  0.28142313     0.22100
C709        C  0.92727376  0.58241634  0.30726739    -0.34100
C710        C  0.94639616  0.60323227  0.30832240     0.16200
O711        O  0.97368324  0.63509727  0.29122913    -0.26200
C712        C  0.97640739  0.63352706  0.31792863     0.06000
C713        C  0.96002931  0.61398728  0.32963411    -0.31000
O714        O  0.90089689  0.55579672  0.27572179    -0.22900
C715        C  0.89990456  0.55571776  0.24887029    -0.02900
C716        C  0.91637074  0.57515165  0.23708272    -0.17300
H717        H  0.95421978  0.61881226  0.24159208     0.20700
H718        H  0.92032863  0.57211854  0.32528188     0.19100
H719        H  0.95868545  0.60830873  0.35072068     0.19000
H720        H  0.91955824  0.57907764  0.21579776     0.14900
C721        C  0.92935788  0.41385451  0.25730170     0.30300
C722        C  0.94809442  0.39262887  0.25582114    -0.36000
C723        C  0.95908699  0.38409921  0.28053807     0.16300
C724        C  0.95241711  0.39602696  0.30485833     0.22100
C725        C  0.93339242  0.41681479  0.30636775    -0.34100
C726        C  0.92205824  0.42494649  0.28182894     0.16200
O727        O  0.91729222  0.42580746  0.23676992    -0.26200
C728        C  0.90171977  0.44428978  0.24850123     0.06000
C729        C  0.90373642  0.44456870  0.27644746    -0.31000
O730        O  0.96596817  0.38593115  0.32533005    -0.22900
C731        C  0.98123845  0.36696086  0.31416369    -0.02900
C732        C  0.97776602  0.36473118  0.28634215    -0.17300
H733        H  0.95392231  0.38363291  0.23674306     0.20700
H734        H  0.92799976  0.42620924  0.32538484     0.19100
H735        H  0.89393353  0.45804337  0.29060793     0.19000
H736        H  0.98806590  0.35138188  0.27242586     0.14900
C737        C  0.75954032  0.39545687  0.11670358     0.30300
C738        C  0.75830979  0.41408772  0.13800025    -0.36000
C739        C  0.78315878  0.42314125  0.14803576     0.16300
C740        C  0.80756366  0.41499807  0.13734797     0.22100
C741        C  0.80881796  0.39605348  0.11630233    -0.34100
C742        C  0.78395808  0.38647911  0.10672614     0.16200
O743        O  0.73876541  0.38461057  0.10410104    -0.26200
C744        C  0.75000849  0.36799621  0.08626479     0.06000
C745        C  0.77805869  0.36827576  0.08696635    -0.31000
O746        O  0.82822411  0.42744603  0.14858900    -0.22900
C747        C  0.81691830  0.44332629  0.16707619    -0.02900
C748        C  0.78895949  0.44134005  0.16780833    -0.17300
H749        H  0.73926725  0.42115902  0.14609081     0.20700
H750        H  0.82785152  0.38939162  0.10784844     0.19100
H751        H  0.79199927  0.35717835  0.07429919     0.19000
H752        H  0.77493269  0.45271963  0.18012350     0.14900
C753        C  0.61555100  0.22832517  0.13713675     0.30300
C754        C  0.63599128  0.22700354  0.11757780    -0.36000
C755        C  0.64570109  0.25179924  0.10799964     0.16300
C756        C  0.63556736  0.27628847  0.11656671     0.22100
C757        C  0.61536734  0.27762221  0.13648762    -0.34100
C758        C  0.60606531  0.25277352  0.14654219     0.16200
O759        O  0.60311750  0.20758144  0.14823351    -0.26200
C760        C  0.58579929  0.21879094  0.16542362     0.06000
C761        C  0.58679722  0.24686741  0.16536491    -0.31000
O762        O  0.64668778  0.29691131  0.10379710    -0.22900
C763        C  0.66454653  0.28545104  0.08726056    -0.02900
C764        C  0.66487731  0.25745396  0.08913071    -0.17300
H765        H  0.64366234  0.20791583  0.11017221     0.20700
H766        H  0.60731837  0.29669590  0.14350973     0.19100
H767        H  0.57443840  0.26082249  0.17677587     0.19000
H768        H  0.67684053  0.24330586  0.07753103     0.14900
C769        C  0.41457741  0.07967720  0.78184111     0.30300
C770        C  0.42125807  0.08989157  0.80741702    -0.36000
C771        C  0.44174568  0.10940158  0.80796928     0.16300
C772        C  0.45436271  0.11868231  0.78488885     0.22100
C773        C  0.44783369  0.10833133  0.75937518    -0.34100
C774        C  0.42778372  0.08842567  0.75888969     0.16200
O775        O  0.39687622  0.06047568  0.77668820    -0.26200
C776        C  0.39912390  0.05667021  0.75017847     0.06000
C777        C  0.41806150  0.07343089  0.73807090    -0.31000
O778        O  0.47359115  0.13626402  0.79014355    -0.22900
C779        C  0.47352191  0.13799683  0.81693134    -0.02900
C780        C  0.45422842  0.12169648  0.82913871    -0.17300
H781        H  0.41169282  0.08257628  0.82568555     0.20700
H782        H  0.45823403  0.11478632  0.74123907     0.19100
H783        H  0.42399214  0.07419082  0.71702537     0.19000
H784        H  0.45054870  0.11875662  0.85050493     0.14900
C785        C  0.61048349  0.24919591  0.91411385     0.30300
C786        C  0.61875071  0.27497835  0.92237982    -0.36000
C787        C  0.63780842  0.27578077  0.94330702     0.16300
C788        C  0.64844653  0.25280364  0.95495541     0.22100
C789        C  0.63997724  0.22702713  0.94687785    -0.34100
C790        C  0.62056003  0.22623751  0.92628660     0.16200
O791        O  0.59195160  0.24375293  0.89577992    -0.26200
C792        C  0.58995608  0.21699237  0.89644812     0.06000
C793        C  0.60719506  0.20502912  0.91508724    -0.31000
O794        O  0.66578263  0.25829366  0.97441765    -0.22900
C795        C  0.66593753  0.28511742  0.97546655    -0.02900
C796        C  0.64884748  0.29707372  0.95669198    -0.17300
H797        H  0.61043693  0.29315936  0.91353966     0.20700
H798        H  0.64756557  0.20886697  0.95639038     0.19100
H799        H  0.60906405  0.18384529  0.92010859     0.19000
H800        H  0.64498372  0.31835132  0.95357037     0.14900
C801        C  0.44887771  0.22749265  0.92916175     0.30300
C802        C  0.42907501  0.22536952  0.94928252    -0.36000
C803        C  0.41841097  0.24978202  0.95877242     0.16300
C804        C  0.42711354  0.27459776  0.94954843     0.22100
C805        C  0.44654659  0.27670336  0.92906193    -0.34100
C806        C  0.45679373  0.25226880  0.91915944     0.16200
O807        O  0.46210376  0.20731909  0.91798991    -0.26200
C808        C  0.47830057  0.21928831  0.90024438     0.06000
C809        C  0.47580013  0.24722286  0.89994519    -0.31000
O810        O  0.41565850  0.29483046  0.96245559    -0.22900
C811        C  0.39902766  0.28280810  0.97975149    -0.02900
C812        C  0.39969297  0.25481554  0.97825436    -0.17300
H813        H  0.42264503  0.20602602  0.95719924     0.20700
H814        H  0.45343343  0.29606584  0.92159099     0.19100
H815        H  0.48699671  0.26167966  0.88796697     0.19000
H816        H  0.38883627  0.24035844  0.99054353     0.14900
C817        C  0.92985836  0.77689240  0.44858227     0.30300
C818        C  0.94833930  0.77776331  0.42709362    -0.36000
C819        C  0.95821439  0.75273831  0.41817525     0.16300
C820        C  0.95091745  0.72858677  0.43001812     0.22100
C821        C  0.93220195  0.72768973  0.45120839    -0.34100
C822        C  0.92186463  0.75260662  0.45967103     0.16200
O823        O  0.91830814  0.79779804  0.46044941    -0.26200
C824        C  0.90231636  0.78659988  0.47891723     0.06000
C825        C  0.90365072  0.75860417  0.47926838    -0.31000
O826        O  0.96354026  0.70773257  0.41936290    -0.22900
C827        C  0.97873711  0.71858397  0.40008258    -0.02900
C828        C  0.97617332  0.74648513  0.39830697    -0.17300
H829        H  0.95464191  0.79662918  0.41801022     0.20700
H830        H  0.92616206  0.70884579  0.46052178     0.19100
H831        H  0.89321772  0.74475214  0.49258471     0.19000
H832        H  0.98674342  0.76019720  0.38496107     0.14900
C833        C  0.78447672  0.88433518  0.45634101     0.30300
C834        C  0.75856707  0.89174725  0.44747123    -0.36000
C835        C  0.75734547  0.91338958  0.42915611     0.16300
C836        C  0.78010192  0.92638822  0.41970963     0.22100
C837        C  0.80592686  0.91914719  0.42873355    -0.34100
C838        C  0.80709620  0.89793288  0.44743664     0.16200
O839        O  0.79029109  0.86568534  0.47453070    -0.26200
C840        C  0.81692607  0.86767721  0.47751751     0.06000
C841        C  0.82840088  0.88738797  0.46117014    -0.31000
O842        O  0.77436086  0.94613689  0.40279518    -0.22900
C843        C  0.74755225  0.94609584  0.40165271    -0.02900
C844        C  0.73583821  0.92629678  0.41777870    -0.17300
H845        H  0.74056926  0.88178299  0.45485232     0.20700
H846        H  0.82384985  0.92974691  0.42208852     0.19100
H847        H  0.84934294  0.89352422  0.46012768     0.19000
H848        H  0.71459739  0.92211109  0.42069458     0.14900
C849        C  0.91939008  0.75298437  0.60835378     0.30300
C850        C  0.92802983  0.72697907  0.61541664    -0.36000
C851        C  0.94771909  0.72550479  0.63569261     0.16300
C852        C  0.95787737  0.74803118  0.64856838     0.22100
C853        C  0.94943458  0.77410290  0.64129623    -0.34100
C854        C  0.93010432  0.77560382  0.62060972     0.16200
O855        O  0.90172250  0.75900591  0.58937926    -0.26200
C856        C  0.90135849  0.78583107  0.58919420     0.06000
C857        C  0.91872183  0.79729523  0.60806996    -0.31000
O858        O  0.97647113  0.74191029  0.66666279    -0.22900
C859        C  0.97845540  0.71516256  0.66506157    -0.02900
C860        C  0.96111818  0.70389696  0.64608332    -0.17300
H861        H  0.92030976  0.70914447  0.60541281     0.20700
H862        H  0.95775787  0.79198086  0.65072160     0.19100
H863        H  0.92250711  0.81848485  0.61181682     0.19000
H864        H  0.95901797  0.68287652  0.64050404     0.14900
C865        C  0.14808934  0.75341144  0.60869232     0.30300
C866        C  0.14090862  0.72728508  0.61669875    -0.36000
C867        C  0.12081925  0.72555215  0.63646280     0.16300
C868        C  0.10900621  0.74800421  0.64800968     0.22100
C869        C  0.11597099  0.77417362  0.63976597    -0.34100
C870        C  0.13568405  0.77589108  0.61954577     0.16200
O871        O  0.16591354  0.75960476  0.59002651    -0.26200
C872        C  0.16467253  0.78633933  0.58862504     0.06000
C873        C  0.14609654  0.79764656  0.60635684    -0.31000
O874        O  0.09031323  0.74161732  0.66579137    -0.22900
C875        C  0.08993228  0.71479483  0.66525412    -0.02900
C876        C  0.10838757  0.70366383  0.64735459    -0.17300
H877        H  0.14998066  0.70953128  0.60773475     0.20700
H878        H  0.10629711  0.79190246  0.64812427     0.19100
H879        H  0.14100673  0.81872555  0.60902473     0.19000
H880        H  0.11177443  0.68257359  0.64274995     0.14900
C881        C  0.11291441  0.61546001  0.77893267     0.30300
C882        C  0.12133158  0.60757007  0.80483098    -0.36000
C883        C  0.14124011  0.58747810  0.80589559     0.16300
C884        C  0.15272764  0.57642571  0.78302878     0.22100
C885        C  0.14428067  0.58428765  0.75707631    -0.34100
C886        C  0.12377826  0.60385174  0.75602935     0.16200
O887        O  0.09340482  0.63271512  0.77337861    -0.26200
C888        C  0.09138339  0.63187219  0.74659073     0.06000
C889        C  0.10975203  0.61423178  0.73469312    -0.31000
O890        O  0.17038506  0.55730579  0.78878089    -0.22900
C891        C  0.16985594  0.55581987  0.81564985    -0.02900
C892        C  0.15204946  0.57406428  0.82736149    -0.17300
H893        H  0.11227580  0.61585792  0.82294265     0.20700
H894        H  0.15245306  0.57509599  0.73897865     0.19100
H895        H  0.11207127  0.60943892  0.71347258     0.19000
H896        H  0.14739265  0.57666905  0.84857748     0.14900
C897        C  0.77698551  0.91860802  0.65234888     0.30300
C898        C  0.80310358  0.90994676  0.64566431    -0.36000
C899        C  0.80496438  0.89107371  0.62463098     0.16300
C900        C  0.78258527  0.88071598  0.61165477     0.22100
C901        C  0.75644458  0.88929126  0.61842653    -0.34100
C902        C  0.75464275  0.90882544  0.63887558     0.16200
O903        O  0.77083619  0.93781262  0.66972905    -0.26200
C904        C  0.74427881  0.94067922  0.66710473     0.06000
C905        C  0.73308888  0.92317749  0.64819548    -0.31000
O906        O  0.78905225  0.86439757  0.59161655    -0.22900
C907        C  0.81589394  0.86469795  0.59144531    -0.02900
C908        C  0.82691425  0.88091392  0.61153576    -0.17300
H909        H  0.82084531  0.91833501  0.65532340     0.20700
H910        H  0.73882049  0.88216890  0.60760270     0.19100
H911        H  0.71227182  0.92186001  0.64167450     0.19000
H912        H  0.84799743  0.88518534  0.61537868     0.14900
C913        C  0.61194997  0.10419455  0.80233303     0.30300
C914        C  0.62949387  0.08204760  0.80322118    -0.36000
C915        C  0.64219853  0.07529866  0.77886900     0.16300
C916        C  0.63744649  0.08888917  0.75498912     0.22100
C917        C  0.62012860  0.11135893  0.75417637    -0.34100
C918        C  0.60784646  0.11851223  0.77875856     0.16200
O919        O  0.59782236  0.11372392  0.82275464    -0.26200
C920        C  0.58475925  0.13471392  0.81233784     0.06000
C921        C  0.59023075  0.13874239  0.78503356    -0.31000
O922        O  0.65031032  0.07794776  0.73430861    -0.22900
C923        C  0.66394541  0.05757441  0.74535161    -0.02900
C924        C  0.65976087  0.05507817  0.77297687    -0.17300
H925        H  0.63292503  0.07076043  0.82165404     0.20700
H926        H  0.61633778  0.12236632  0.73564740     0.19100
H927        H  0.58200686  0.15398929  0.77169714     0.19000
H928        H  0.66756879  0.03975586  0.78648322     0.14900
C929        C  0.78887296  0.11364202  0.60901180     0.30300
C930        C  0.76336052  0.10923494  0.62044281    -0.36000
C931        C  0.76068904  0.08599759  0.63635930     0.16300
C932        C  0.78186151  0.06856873  0.64124922     0.22100
C933        C  0.80735687  0.07282098  0.62955768    -0.34100
C934        C  0.80988732  0.09584304  0.61319480     0.16200
O935        O  0.79552068  0.13371708  0.59287651    -0.26200
C936        C  0.82105641  0.12866533  0.58636869     0.06000
C937        C  0.83108807  0.10530696  0.59835956    -0.31000
O938        O  0.77484554  0.04822480  0.65697134    -0.22900
C939        C  0.74876348  0.05249349  0.66179860    -0.02900
C940        C  0.73882031  0.07556664  0.64935629    -0.17300
H941        H  0.74660348  0.12281545  0.61683292     0.20700
H942        H  0.82397326  0.05896358  0.63273958     0.19100
H943        H  0.85096246  0.09648074  0.59620666     0.19000
H944        H  0.71848027  0.08353031  0.64996688     0.14900
C945        C  0.60834367  0.88518957  0.78700329     0.30300
C946        C  0.61524657  0.89359090  0.76084259    -0.36000
C947        C  0.63392126  0.91476500  0.75913668     0.16300
C948        C  0.64556834  0.92644801  0.78161383     0.22100
C949        C  0.63851611  0.91818514  0.80780891    -0.34100
C950        C  0.61936797  0.89740205  0.80952014     0.16200
O951        O  0.59015209  0.86681195  0.79325125    -0.26200
C952        C  0.58923245  0.86750972  0.82009311     0.06000
C953        C  0.60695974  0.88614908  0.83133555    -0.31000
O954        O  0.66260494  0.94589561  0.77527021    -0.22900
C955        C  0.66150751  0.94692595  0.74841870    -0.02900
C956        C  0.64388648  0.92815750  0.73729321    -0.17300
H957        H  0.60616057  0.88467569  0.74303987     0.20700
H958        H  0.64692616  0.92771389  0.82562696     0.19100
H959        H  0.60967282  0.89120926  0.85244992     0.19000
H960        H  0.63927624  0.92478297  0.71617202     0.14900
C961        C  0.41503376  0.92345253  0.78440748     0.30300
C962        C  0.42405247  0.91650593  0.81041179    -0.36000
C963        C  0.44438957  0.89680821  0.81167367     0.16300
C964        C  0.45458463  0.88426068  0.78895744     0.22100
C965        C  0.44561175  0.89123340  0.76300100    -0.34100
C966        C  0.42583313  0.91141314  0.76169760     0.16200
O967        O  0.39755877  0.94263982  0.77837511    -0.26200
C968        C  0.39751304  0.94312269  0.75147493     0.06000
C969        C  0.41471647  0.92416487  0.74002707    -0.31000
O970        O  0.47391525  0.86689857  0.79469731    -0.22900
C971        C  0.47647182  0.86861656  0.82139532    -0.02900
C972        C  0.45868338  0.88695509  0.83306366    -0.17300
H973        H  0.41642056  0.92644102  0.82834144     0.20700
H974        H  0.45413540  0.88218913  0.74500078     0.19100
H975        H  0.41896305  0.92083342  0.71882822     0.19000
H976        H  0.45678889  0.89239037  0.85416664     0.14900
C977        C  0.45675892  0.75281978  0.91965922     0.30300
C978        C  0.44853769  0.72673094  0.92694647    -0.36000
C979        C  0.42892912  0.72516873  0.94729567     0.16300
C980        C  0.41775852  0.74774740  0.95922432     0.22100
C981        C  0.42621962  0.77380853  0.95217321    -0.34100
C982        C  0.44621370  0.77534969  0.93222874     0.16200
O983        O  0.47542710  0.75895336  0.90173194    -0.26200
C984        C  0.47708953  0.78569879  0.90312594     0.06000
C985        C  0.45951141  0.79701289  0.92183584    -0.31000
O986        O  0.40000734  0.74162146  0.97805364    -0.22900
C987        C  0.40009983  0.71480026  0.97846921    -0.02900
C988        C  0.41777739  0.70342280  0.95987259    -0.17300
H989        H  0.45722476  0.70889195  0.91777722     0.20700
H990        H  0.41816199  0.79161915  0.96195768     0.19100
H991        H  0.45711516  0.81807330  0.92714832     0.19000
H992        H  0.42202919  0.68226816  0.95644337     0.14900
C993        C  0.63950754  0.72603564  0.94898177     0.30300
C994        C  0.61762529  0.72488630  0.93102351    -0.36000
C995        C  0.60901183  0.74965061  0.92033815     0.16300
C996        C  0.62080880  0.77393742  0.92722301     0.22100
C997        C  0.64313433  0.77499914  0.94462849    -0.34100
C998        C  0.65201721  0.75019447  0.95498468     0.16200
O999        O  0.64965243  0.70562720  0.96273961    -0.26200
C1000       C  0.66920176  0.71678957  0.97738667     0.06000
C1001       C  0.67179079  0.74441069  0.97319473    -0.31000
O1002       O  0.60832750  0.79479236  0.91633800    -0.22900
C1003       C  0.58866700  0.78366266  0.90183375    -0.02900
C1004       C  0.58819044  0.75565228  0.90341709    -0.17300
H1005       H  0.60758636  0.70607142  0.92623763     0.20700
H1006       H  0.65251792  0.79392751  0.95023295     0.19100
H1007       H  0.68526766  0.75837505  0.98324535     0.19000
H1008       H  0.57392088  0.74186361  0.89426229     0.14900
C1009       C  0.80670746  0.58474442  0.14006413     0.30300
C1010       C  0.80838460  0.60474819  0.12016689    -0.36000
C1011       C  0.78379638  0.61528819  0.11115326     0.16300
C1012       C  0.75916248  0.60635560  0.12062360     0.22100
C1013       C  0.75748906  0.58668363  0.14096035    -0.34100
C1014       C  0.78216475  0.57649299  0.15036987     0.16200
O1015       O  0.82715687  0.57140299  0.15048689    -0.26200
C1016       C  0.81566138  0.55475042  0.16807445     0.06000
C1017       C  0.78771629  0.55706812  0.16903987    -0.31000
O1018       O  0.73872114  0.61767390  0.10788718    -0.22900
C1019       C  0.75050383  0.63441240  0.09049364    -0.02900
C1020       C  0.77847479  0.63392946  0.09174540    -0.17300
H1021       H  0.82754834  0.61131593  0.11194335     0.20700
H1022       H  0.73829599  0.57948712  0.14856399     0.19100
H1023       H  0.77357750  0.54538545  0.18093078     0.19000
H1024       H  0.79275573  0.64477785  0.07924658     0.14900
C1025       C  0.65331388  0.75032252  0.11119424     0.30300
C1026       C  0.64409882  0.77604161  0.11864140    -0.36000
C1027       C  0.62427995  0.77670307  0.13885976     0.16300
C1028       C  0.61466848  0.75369219  0.15131729     0.22100
C1029       C  0.62378372  0.72802449  0.14380719    -0.34100
C1030       C  0.64312275  0.72733338  0.12322355     0.16200
O1031       O  0.67046140  0.74480250  0.09158065    -0.26200
C1032       C  0.67085424  0.71797532  0.09089045     0.06000
C1033       C  0.65428414  0.70604439  0.11007726    -0.31000
O1034       O  0.59568103  0.75888422  0.16917492    -0.22900
C1035       C  0.59284083  0.78551621  0.16791866    -0.02900
C1036       C  0.61001807  0.79770921  0.14936496    -0.17300
H1037       H  0.65123624  0.79418557  0.10876378     0.20700
H1038       H  0.61572054  0.70980619  0.15279662     0.19100
H1039       H  0.65045772  0.68477312  0.11329155     0.19000
H1040       H  0.61143038  0.81886980  0.14411150     0.14900
C1041       C  0.94742438  0.60499369  0.75652106     0.30300
C1042       C  0.92874506  0.58373911  0.75585474    -0.36000
C1043       C  0.91714794  0.57670792  0.78072710     0.16300
C1044       C  0.92382532  0.58941230  0.80465739     0.22100
C1045       C  0.94184809  0.61115904  0.80517497    -0.34100
C1046       C  0.95316013  0.61840306  0.78029773     0.16200
O1047       O  0.96212258  0.61370695  0.73608922    -0.26200
C1048       C  0.97711630  0.63316198  0.74693772     0.06000
C1049       C  0.97221122  0.63713805  0.77427248    -0.31000
O1050       O  0.91265068  0.57788677  0.82587309    -0.22900
C1051       C  0.89814850  0.55796603  0.81531739    -0.02900
C1052       C  0.89994159  0.55637155  0.78734024    -0.17300
H1053       H  0.92422136  0.57287705  0.73740123     0.20700
H1054       H  0.94738640  0.62115175  0.82384233     0.19100
H1055       H  0.98217623  0.65098535  0.78794970     0.19000
H1056       H  0.89114913  0.54138184  0.77406924     0.14900
C1057       C  0.78257111  0.61543203  0.95884045     0.30300
C1058       C  0.80852129  0.60787940  0.95053582    -0.36000
C1059       C  0.80976092  0.58756226  0.93091058     0.16300
C1060       C  0.78701367  0.57587251  0.91982752     0.22100
C1061       C  0.76108120  0.58322126  0.92834607    -0.34100
C1062       C  0.75985407  0.60315915  0.94834860     0.16200
O1063       O  0.77672548  0.63350645  0.97742638    -0.26200
C1064       C  0.74998352  0.63251773  0.97907533     0.06000
C1065       C  0.73836301  0.61391726  0.96160067    -0.31000
O1066       O  0.79286203  0.55705203  0.90199960    -0.22900
C1067       C  0.81965755  0.55644507  0.90195886    -0.02900
C1068       C  0.83131117  0.57489266  0.91958976    -0.17300
H1069       H  0.82650106  0.61688333  0.95913528     0.20700
H1070       H  0.74312398  0.57369117  0.92028533     0.19100
H1071       H  0.71721279  0.60899747  0.95915748     0.19000
H1072       H  0.85252414  0.57820876  0.92366051     0.14900
C1073       C  0.78392254  0.38545990  0.95858568     0.30300
C1074       C  0.80986053  0.39555837  0.95315144    -0.36000
C1075       C  0.81172706  0.41439550  0.93203508     0.16300
C1076       C  0.78964859  0.42228135  0.91697498     0.22100
C1077       C  0.76373295  0.41240196  0.92256805    -0.34100
C1078       C  0.76178027  0.39404760  0.94401449     0.16200
O1079       O  0.77733601  0.36847077  0.97803594    -0.26200
C1080       C  0.75061464  0.36649457  0.97610558     0.06000
C1081       C  0.73982293  0.38207915  0.95541925    -0.31000
O1082       O  0.79579689  0.44040267  0.89850948    -0.22900
C1083       C  0.82208497  0.44451345  0.90194016    -0.02900
C1084       C  0.83312570  0.42893698  0.92256849    -0.17300
H1085       H  0.82727598  0.38959538  0.96496863     0.20700
H1086       H  0.74617648  0.41907260  0.91135063     0.19100
H1087       H  0.71882201  0.38448817  0.94987169     0.19000
H1088       H  0.85376672  0.42867225  0.92974101     0.14900
C1089       C  0.92767938  0.41534386  0.80721246     0.30300
C1090       C  0.94546620  0.39342820  0.80865129    -0.36000
C1091       C  0.95465697  0.38337825  0.78387328     0.16300
C1092       C  0.94730460  0.39450545  0.75937215     0.22100
C1093       C  0.92909651  0.41609857  0.75790274    -0.34100
C1094       C  0.91949357  0.42580849  0.78267809     0.16200
O1095       O  0.91718705  0.42833659  0.82789121    -0.26200
C1096       C  0.90165412  0.44693647  0.81642386     0.06000
C1097       C  0.90219616  0.44633741  0.78837070    -0.31000
O1098       O  0.96010905  0.38340388  0.73888617    -0.22900
C1099       C  0.97547228  0.36466155  0.75041051    -0.02900
C1100       C  0.97272265  0.36350370  0.77831093    -0.17300
H1101       H  0.95202270  0.38507041  0.82778546     0.20700
H1102       H  0.92320255  0.42501107  0.73880354     0.19100
H1103       H  0.89190471  0.45956065  0.77432334     0.19000
H1104       H  0.98368854  0.35099061  0.79249827     0.14900
loop_ 
_geom_bond_atom_site_label_1 
_geom_bond_atom_site_label_2 
_geom_bond_distance 
_geom_bond_site_symmetry_2 
_ccdc_geom_bond_type 
O1            V9   1.902       .  S
O1           C11   1.264       .  A
O2            V9   1.906       .  S
O2           C12   1.265       .  A
O3            V9   1.896       .  S
O3           C13   1.262       .  A
O4            V9   1.895       .  S
O4           C14   1.262       .  A
O5           V10   1.898       .  S
O5           C14   1.263       .  A
O6           V10   1.897       .  S
O6           C13   1.263       .  A
O7           V10   1.897       .  S
O7           C12   1.263       .  A
O8           V10   1.895       .  S
O8           C11   1.262       .  A
V9           V10   2.090       .  T
C11        C1051   1.462       .  S
C12        C1083   1.469       .  S
C13        C1096   1.459       .  S
C14        C1067   1.461       .  S
O15          V23   1.898       .  S
O15          C25   1.262       .  A
O16          V23   1.899       .  S
O16          C26   1.263   1_554  A
O17          V23   1.896       .  S
O17          C27   1.263   1_554  A
O18          V23   1.893       .  S
O18          C28   1.263       .  A
O19          V24   1.900       .  S
O19          C28   1.263       .  A
O20          V24   1.897       .  S
O20          C27   1.263   1_554  A
O21          V24   1.902       .  S
O21          C26   1.265   1_554  A
O22          V24   1.899       .  S
O22          C25   1.264       .  A
V23          V24   2.090       .  T
C25        C1019   1.463       .  S
C26        C1000   1.468       .  S
C27        C1064   1.461       .  S
C28        C1032   1.462       .  S
O29          V37   1.905       .  S
O29          C39   1.265       .  A
O30          V37   1.904       .  S
O30          C40   1.264       .  A
O31          V37   1.899       .  S
O31          C41   1.264       .  A
O32          V37   1.898       .  S
O32          C42   1.263       .  A
O33          V38   1.899       .  S
O33          C42   1.263       .  A
O34          V38   1.902       .  S
O34          C41   1.264       .  A
O35          V38   1.900       .  S
O35          C40   1.264       .  A
O36          V38   1.901       .  S
O36          C39   1.264       .  A
V37          V38   2.089       .  T
C39         C971   1.470       .  S
C40        C1003   1.467       .  S
C41         C952   1.467       .  S
C42         C984   1.464       .  S
O43          V51   1.905       .  S
O43          C53   1.264       .  A
O44          V51   1.905   1_565  S
O44          C54   1.265       .  A
O45          V51   1.903   1_565  S
O45          C55   1.265       .  A
O46          V51   1.904       .  S
O46          C56   1.265       .  A
O47          V52   1.903       .  S
O47          C56   1.264       .  A
O48          V52   1.901   1_565  S
O48          C55   1.263       .  A
O49          V52   1.900   1_565  S
O49          C54   1.263       .  A
O50          V52   1.901       .  S
O50          C53   1.264       .  A
V51          V52   2.089       .  T
C53         C923   1.468       .  S
C54         C904   1.470       .  S
C55         C955   1.468       .  S
C56         C939   1.468       .  S
O57          V65   1.902       .  S
O57          C67   1.264   1_455  A
O58          V65   1.898       .  S
O58          C68   1.264       .  A
O59          V65   1.903       .  S
O59          C69   1.264       .  A
O60          V65   1.901       .  S
O60          C70   1.264   1_455  A
O61          V66   1.905       .  S
O61          C70   1.264   1_455  A
O62          V66   1.907       .  S
O62          C69   1.265       .  A
O63          V66   1.894       .  S
O63          C68   1.261       .  A
O64          V66   1.894       .  S
O64          C67   1.263   1_455  A
V65          V66   2.089       .  T
C67        C1048   1.464       .  S
C68         C875   1.460       .  S
C69         C888   1.473       .  S
C70         C859   1.470       .  S
O71          V79   1.903       .  S
O71          C81   1.265       .  A
O72          V79   1.908       .  S
O72          C82   1.265       .  A
O73          V79   1.896       .  S
O73          C83   1.263       .  A
O74          V79   1.900       .  S
O74          C84   1.263       .  A
O75          V80   1.905       .  S
O75          C84   1.265       .  A
O76          V80   1.906       .  S
O76          C83   1.264       .  A
O77          V80   1.899       .  S
O77          C82   1.264       .  A
O78          V80   1.899       .  S
O78          C81   1.263       .  A
V79          V80   2.089       .  T
C81         C856   1.467       .  S
C82         C840   1.472       .  S
C83         C824   1.467       .  S
C84         C907   1.469       .  S
O85          V93   1.896       .  S
O85          C95   1.262       .  A
O86          V93   1.898       .  S
O86          C96   1.263       .  A
O87          V93   1.896       .  S
O87          C97   1.263       .  A
O88          V93   1.894       .  S
O88          C98   1.262       .  A
O89          V94   1.902       .  S
O89          C98   1.264       .  A
O90          V94   1.903       .  S
O90          C97   1.264       .  A
O91          V94   1.905       .  S
O91          C96   1.265       .  A
O92          V94   1.903       .  S
O92          C95   1.265       .  A
V93          V94   2.089       .  T
C95         C808   1.465       .  S
C96         C920   1.469       .  S
C97         C792   1.466       .  S
C98         C779   1.462       .  S
O99         V107   1.903       .  S
O99         C109   1.265   1_554  A
O100        V107   1.906       .  S
O100        C110   1.264       .  A
O101        V107   1.900       .  S
O101        C111   1.263       .  A
O102        V107   1.898       .  S
O102        C112   1.264   1_554  A
O103        V108   1.903       .  S
O103        C112   1.264   1_554  A
O104        V108   1.901       .  S
O104        C111   1.264       .  A
O105        V108   1.904       .  S
O105        C110   1.265       .  A
O106        V108   1.903       .  S
O106        C109   1.264   1_554  A
V107        V108   2.089       .  T
C109       C1080   1.469       .  S
C110        C763   1.474       .  S
C111        C744   1.466       .  S
C112        C795   1.467       .  S
O113        V121   1.903       .  S
O113        C123   1.265       .  A
O114        V121   1.903       .  S
O114        C124   1.264       .  A
O115        V121   1.900       .  S
O115        C125   1.263       .  A
O116        V121   1.897       .  S
O116        C126   1.264       .  A
O117        V122   1.898       .  S
O117        C126   1.262       .  A
O118        V122   1.895       .  S
O118        C125   1.263       .  A
O119        V122   1.900       .  S
O119        C124   1.264       .  A
O120        V122   1.898       .  S
O120        C123   1.263       .  A
V121        V122   2.090       .  T
C123        C747   1.466       .  S
C124        C715   1.467       .  S
C125       C1016   1.462       .  S
C126        C728   1.462       .  S
O127        V135   1.902       .  S
O127        C137   1.264   1_455  A
O128        V135   1.901       .  S
O128        C138   1.264       .  A
O129        V135   1.900       .  S
O129        C139   1.264       .  A
O130        V135   1.901       .  S
O130        C140   1.264   1_455  A
O131        V136   1.900       .  S
O131        C140   1.263   1_455  A
O132        V136   1.899       .  S
O132        C139   1.263       .  A
O133        V136   1.897       .  S
O133        C138   1.263       .  A
O134        V136   1.899       .  S
O134        C137   1.264   1_455  A
V135        V136   2.089       .  T
C137        C712   1.467       .  S
C138        C680   1.465       .  S
C139        C696   1.465       .  S
C140        C827   1.467       .  S
O141        V149   1.898       .  S
O141        C151   1.263       .  A
O142        V149   1.895       .  S
O142        C152   1.263       .  A
O143        V149   1.902       .  S
O143        C153   1.264       .  A
O144        V149   1.904       .  S
O144        C154   1.264       .  A
O145        V150   1.901       .  S
O145        C154   1.264       .  A
O146        V150   1.898       .  S
O146        C153   1.264       .  A
O147        V150   1.895       .  S
O147        C152   1.262       .  A
O148        V150   1.894       .  S
O148        C151   1.262       .  A
V149        V150   2.090       .  T
C151        C872   1.460       .  S
C152        C667   1.459       .  S
C153        C683   1.465       .  S
C154        C648   1.469       .  S
O155        V163   1.903       .  S
O155        C165   1.264       .  A
O156        V163   1.906   1_565  S
O156        C166   1.266       .  A
O157        V163   1.902   1_565  S
O157        C167   1.263       .  A
O158        V163   1.897       .  S
O158        C168   1.264       .  A
O159        V164   1.903   1_545  S
O159        C168   1.264       .  A
O160        V164   1.903       .  S
O160        C167   1.265       .  A
O161        V164   1.898       .  S
O161        C166   1.263       .  A
O162        V164   1.896   1_545  S
O162        C165   1.263       .  A
V163        V164   2.089   1_545  T
C165        C776   1.465       .  S
C166        C651   1.470       .  S
C167        C968   1.469       .  S
C168        C635   1.467       .  S
O169        V177   1.904   1_565  S
O169        C179   1.264       .  A
O170        V177   1.902       .  S
O170        C180   1.264       .  A
O171        V177   1.897       .  S
O171        C181   1.263       .  A
O172        V177   1.898   1_565  S
O172        C182   1.263       .  A
O173        V178   1.905   1_565  S
O173        C182   1.264       .  A
O174        V178   1.900       .  S
O174        C181   1.264       .  A
O175        V178   1.905       .  S
O175        C180   1.265       .  A
O176        V178   1.903   1_565  S
O176        C179   1.264       .  A
V177        V178   2.089       .  T
C179        C843   1.470       .  S
C180        C616   1.470       .  S
C181        C584   1.464       .  S
C182        C600   1.467       .  S
O183        V191   1.902       .  S
O183        C193   1.263       .  A
O184        V191   1.899       .  S
O184        C194   1.263       .  A
O185        V191   1.903       .  S
O185        C195   1.264       .  A
O186        V191   1.903       .  S
O186        C196   1.265       .  A
O187        V192   1.900       .  S
O187        C196   1.263       .  A
O188        V192   1.900       .  S
O188        C195   1.264       .  A
O189        V192   1.899       .  S
O189        C194   1.263       .  A
O190        V192   1.901       .  S
O190        C193   1.264       .  A
V191        V192   2.089       .  T
C193        C568   1.467       .  S
C194       C1035   1.464       .  S
C195        C603   1.468       .  S
C196        C552   1.469       .  S
O197        V205   1.902       .  S
O197        C207   1.263       .  A
O198        V205   1.903       .  S
O198        C208   1.263       .  A
O199        V205   1.907       .  S
O199        C209   1.266       .  A
O200        V205   1.903       .  S
O200        C210   1.266       .  A
O201        V206   1.898       .  S
O201        C210   1.262       .  A
O202        V206   1.894       .  S
O202        C209   1.261       .  A
O203        V206   1.903       .  S
O203        C208   1.265       .  A
O204        V206   1.906       .  S
O204        C207   1.266       .  A
V205        V206   2.089       .  T
C207        C891   1.472       .  S
C208        C539   1.469       .  S
C209        C504   1.465       .  S
C210        C520   1.466       .  S
O211        V219   1.901       .  S
O211        C221   1.264       .  A
O212        V219   1.900       .  S
O212        C222   1.263   1_554  A
O213        V219   1.900       .  S
O213        C223   1.264   1_554  A
O214        V219   1.901       .  S
O214        C224   1.264       .  A
O215        V220   1.902       .  S
O215        C224   1.264       .  A
O216        V220   1.902       .  S
O216        C223   1.264   1_554  A
O217        V220   1.899       .  S
O217        C222   1.263   1_554  A
O218        V220   1.898       .  S
O218        C221   1.263       .  A
V219        V220   2.089       .  T
C221        C488   1.466       .  S
C222        C987   1.464       .  S
C223        C523   1.468       .  S
C224        C555   1.467       .  S
O225        V233   1.900       .  S
O225        C235   1.263       .  A
O226        V233   1.899       .  S
O226        C236   1.263       .  A
O227        V233   1.900       .  S
O227        C237   1.263       .  A
O228        V233   1.898       .  S
O228        C238   1.263       .  A
O229        V234   1.895       .  S
O229        C238   1.263       .  A
O230        V234   1.899       .  S
O230        C237   1.264       .  A
O231        V234   1.901       .  S
O231        C236   1.264       .  A
O232        V234   1.898       .  S
O232        C235   1.264       .  A
V233        V234   2.090       .  T
C235        C456   1.465       .  S
C236        C699   1.466       .  S
C237        C491   1.465       .  S
C238        C475   1.461       .  S
O239        V247   1.899       .  S
O239        C249   1.264   1_554  A
O240        V247   1.900       .  S
O240        C250   1.264       .  A
O241        V247   1.900       .  S
O241        C251   1.264       .  A
O242        V247   1.900       .  S
O242        C252   1.264   1_554  A
O243        V248   1.898       .  S
O243        C252   1.263   1_554  A
O244        V248   1.899       .  S
O244        C251   1.263       .  A
O245        V248   1.899       .  S
O245        C250   1.263       .  A
O246        V248   1.901       .  S
O246        C249   1.264   1_554  A
V247        V248   2.090       .  T
C249        C536   1.467       .  S
C250        C440   1.464       .  S
C251        C459   1.465       .  S
C252        C811   1.463       .  S
O253        V261   1.898       .  S
O253        C263   1.263       .  A
O254        V261   1.895       .  S
O254        C264   1.262       .  A
O255        V261   1.906       .  S
O255        C265   1.265       .  A
O256        V261   1.908       .  S
O256        C266   1.266       .  A
O257        V262   1.898       .  S
O257        C266   1.263       .  A
O258        V262   1.898       .  S
O258        C265   1.263       .  A
O259        V262   1.905       .  S
O259        C264   1.265       .  A
O260        V262   1.905       .  S
O260        C263   1.266       .  A
V261        V262   2.089       .  T
C263        C619   1.470       .  S
C264        C443   1.466       .  S
C265        C427   1.469       .  S
C266        C760   1.470       .  S
O267        V275   1.894       .  S
O267        C277   1.263   1_455  A
O268        V275   1.898       .  S
O268        C278   1.263       .  A
O269        V275   1.902       .  S
O269        C279   1.264       .  A
O270        V275   1.895       .  S
O270        C280   1.262   1_455  A
O271        V276   1.899       .  S
O271        C280   1.264   1_455  A
O272        V276   1.902       .  S
O272        C279   1.265       .  A
O273        V276   1.903       .  S
O273        C278   1.265       .  A
O274        V276   1.901       .  S
O274        C277   1.263   1_455  A
V275        V276   2.089       .  T
C277        C395   1.462       .  S
C278        C507   1.468       .  S
C279        C411   1.469       .  S
C280       C1099   1.462       .  S
O281        V289   1.900       .  S
O281        C291   1.263       .  A
O282        V289   1.902       .  S
O282        C292   1.264       .  A
O283        V289   1.904       .  S
O283        C293   1.265       .  A
O284        V289   1.900       .  S
O284        C294   1.264       .  A
O285        V290   1.901       .  S
O285        C294   1.263       .  A
O286        V290   1.899       .  S
O286        C293   1.264       .  A
O287        V290   1.892       .  S
O287        C292   1.261       .  A
O288        V290   1.895       .  S
O288        C291   1.263       .  A
V289        V290   2.090       .  T
C291        C587   1.461       .  S
C292        C392   1.461       .  S
C293        C936   1.470       .  S
C294        C379   1.464       .  S
O295        V303   1.909       .  S
O295        C305   1.266       .  A
O296        V303   1.908       .  S
O296        C306   1.266       .  A
O297        V303   1.899       .  S
O297        C307   1.263       .  A
O298        V303   1.899       .  S
O298        C308   1.263       .  A
O299        V304   1.903       .  S
O299        C308   1.265       .  A
O300        V304   1.900       .  S
O300        C307   1.264       .  A
O301        V304   1.899       .  S
O301        C306   1.263       .  A
O302        V304   1.903       .  S
O302        C305   1.264       .  A
V303        V304   2.089       .  T
C305        C360   1.475       .  S
C306        C408   1.471       .  S
C307        C632   1.464       .  S
C308        C344   1.468       .  S
O309        V317   1.899       .  S
O309        C319   1.264       .  A
O310        V317   1.900   1_545  S
O310        C320   1.264       .  A
O311        V317   1.904   1_545  S
O311        C321   1.264       .  A
O312        V317   1.903       .  S
O312        C322   1.264       .  A
O313        V318   1.902       .  S
O313        C322   1.264       .  A
O314        V318   1.907   1_545  S
O314        C321   1.266       .  A
O315        V318   1.900   1_545  S
O315        C320   1.263       .  A
O316        V318   1.893       .  S
O316        C319   1.261       .  A
V317        V318   2.089       .  T
C319        C664   1.459       .  S
C320        C424   1.465       .  S
C321        C363   1.473       .  S
C322        C571   1.469       .  S
O323        V331   1.896       .  S
O323        C333   1.263       .  A
O324        V331   1.899       .  S
O324        C334   1.264       .  A
O325        V331   1.894       .  S
O325        C335   1.262       .  A
O326        V331   1.898       .  S
O326        C336   1.263   1_455  A
O327        V332   1.897       .  S
O327        C336   1.264   1_455  A
O328        V332   1.897       .  S
O328        C335   1.263       .  A
O329        V332   1.905       .  S
O329        C334   1.265       .  A
O330        V332   1.901       .  S
O330        C333   1.264       .  A
V331        V332   2.090       .  T
C333        C731   1.463   1_455  S
C334        C347   1.468       .  S
C335        C472   1.459       .  S
C336        C376   1.464       .  S
C337        C342   1.381       .  A
C337        C338   1.403       .  A
C337        O343   1.318       .  A
C338        C339   1.402       .  A
C338        H349   1.083       .  S
C339        C348   1.362       .  A
C339        C340   1.381       .  A
C340        C341   1.404       .  A
C340        O346   1.320       .  A
C341        C342   1.403       .  A
C341        H350   1.083       .  S
C342        C345   1.364       .  A
O343        C344   1.330       .  A
C344        C345   1.391       .  A
C345        H351   1.083       .  S
O346        C347   1.331       .  A
C347        C348   1.390       .  A
C348        H352   1.083       .  S
C353        C358   1.380       .  A
C353        C354   1.406       .  A
C353        O359   1.321       .  A
C354        C355   1.405       .  A
C354        H365   1.083       .  S
C355        C364   1.365       .  A
C355        C356   1.380       .  A
C356        C357   1.406       .  A
C356        O362   1.321       .  A
C357        C358   1.405       .  A
C357        H366   1.083       .  S
C358        C361   1.365       .  A
O359        C360   1.332       .  A
C360        C361   1.392       .  A
C361        H367   1.083       .  S
O362        C363   1.332       .  A
C363        C364   1.392       .  A
C364        H368   1.083       .  S
C369        C374   1.381       .  A
C369        C370   1.404       .  A
C369        O375   1.319       .  A
C370        C371   1.404       .  A
C370        H381   1.083       .  S
C371        C380   1.363       .  A
C371        C372   1.381       .  A
C372        C373   1.400       .  A
C372        O378   1.317       .  A
C373        C374   1.399       .  A
C373        H382   1.083       .  S
C374        C377   1.358       .  A
O375        C376   1.331       .  A
C376        C377   1.388       .  A
C377        H383   1.083       .  S
O378        C379   1.328       .  A
C379        C380   1.391       .  A
C380        H384   1.083       .  S
C385        C390   1.381       .  A
C385        C386   1.400       .  A
C385        O391   1.315       .  A
C386        C387   1.399       .  A
C386        H397   1.083       .  S
C387        C396   1.358       .  A
C387        C388   1.381       .  A
C388        C389   1.403       .  A
C388        O394   1.319       .  A
C389        C390   1.402       .  A
C389        H398   1.083       .  S
C390        C393   1.362       .  A
O391        C392   1.328       .  A
C392        C393   1.390       .  A
C393        H399   1.083       .  S
O394        C395   1.330       .  A
C395        C396   1.388       .  A
C396        H400   1.083       .  S
C401        C406   1.380       .  A
C401        C402   1.403       .  A
C401        O407   1.319       .  A
C402        C403   1.402       .  A
C402        H413   1.083       .  S
C403        C412   1.362       .  A
C403        C404   1.380       .  A
C404        C405   1.405       .  A
C404        O410   1.321       .  A
C405        C406   1.405       .  A
C405        H414   1.083       .  S
C406        C409   1.365       .  A
O407        C408   1.331       .  A
C408        C409   1.392       .  A
C409        H415   1.083       .  S
O410        C411   1.331       .  A
C411        C412   1.390       .  A
C412        H416   1.083       .  S
C417        C422   1.381       .  A
C417        C418   1.404       .  A
C417        O423   1.319       .  A
C418        C419   1.404       .  A
C418        H429   1.083       .  S
C419        C428   1.363       .  A
C419        C420   1.381       .  A
C420        C421   1.402       .  A
C420        O426   1.319       .  A
C421        C422   1.401       .  A
C421        H430   1.083       .  S
C422        C425   1.361       .  A
O423        C424   1.331       .  A
C424        C425   1.389       .  A
C425        H431   1.083       .  S
O426        C427   1.330       .  A
C427        C428   1.392       .  A
C428        H432   1.083       .  S
C433        C438   1.381       .  A
C433        C434   1.402       .  A
C433        O439   1.318       .  A
C434        C435   1.401       .  A
C434        H445   1.083       .  S
C435        C444   1.360       .  A
C435        C436   1.381       .  A
C436        C437   1.403       .  A
C436        O442   1.319       .  A
C437        C438   1.402       .  A
C437        H446   1.083       .  S
C438        C441   1.361       .  A
O439        C440   1.330       .  A
C440        C441   1.390       .  A
C441        H447   1.083       .  S
O442        C443   1.330       .  A
C443        C444   1.390       .  A
C444        H448   1.083       .  S
C449        C454   1.381       .  A
C449        C450   1.403       .  A
C449        O455   1.319       .  A
C450        C451   1.403       .  A
C450        H461   1.084       .  S
C451        C460   1.361       .  A
C451        C452   1.381       .  A
C452        C453   1.401       .  A
C452        O458   1.318       .  A
C453        C454   1.401       .  A
C453        H462   1.084       .  S
C454        C457   1.359       .  A
O455        C456   1.331       .  A
C456        C457   1.389       .  A
C457        H463   1.083       .  S
O458        C459   1.330       .  A
C459        C460   1.390       .  A
C460        H464   1.083       .  S
C465        C470   1.381       .  A
C465        C466   1.400       .  A
C465        O471   1.316       .  A
C466        C467   1.399       .  A
C466        H477   1.084       .  S
C467        C476   1.358       .  A
C467        C468   1.381       .  A
C468        C469   1.402       .  A
C468        O474   1.318       .  A
C469        C470   1.401       .  A
C469        H478   1.084       .  S
C470        C473   1.360       .  A
O471        C472   1.328       .  A
C472        C473   1.389       .  A
C473        H479   1.083       .  S
O474        C475   1.330       .  A
C475        C476   1.388       .  A
C476        H480   1.083       .  S
C481        C486   1.381       .  A
C481        C482   1.403       .  A
C481        O487   1.319       .  A
C482        C483   1.403       .  A
C482        H493   1.083       .  S
C483        C492   1.362       .  A
C483        C484   1.381       .  A
C484        C485   1.402       .  A
C484        O490   1.318       .  A
C485        C486   1.401       .  A
C485        H494   1.083       .  S
C486        C489   1.361       .  A
O487        C488   1.331       .  A
C488        C489   1.390       .  A
C489        H495   1.083       .  S
O490        C491   1.330       .  A
C491        C492   1.390       .  A
C492        H496   1.083       .  S
C497        C502   1.381       .  A
C497        C498   1.403       .  A
C497        O503   1.318       .  A
C498        C499   1.402       .  A
C498        H509   1.083       .  S
C499        C508   1.362       .  A
C499        C500   1.381       .  A
C500        C501   1.404       .  A
C500        O506   1.319       .  A
C501        C502   1.403       .  A
C501        H510   1.083       .  S
C502        C505   1.363       .  A
O503        C504   1.330       .  A
C504        C505   1.390       .  A
C505        H511   1.083       .  S
O506        C507   1.331       .  A
C507        C508   1.391       .  A
C508        H512   1.083       .  S
C513        C518   1.381       .  A
C513        C514   1.405       .  A
C513        O519   1.320       .  A
C514        C515   1.404       .  A
C514        H525   1.084       .  S
C515        C524   1.362       .  A
C515        C516   1.381       .  A
C516        C517   1.402       .  A
C516        O522   1.319       .  A
C517        C518   1.401       .  A
C517        H526   1.084       .  S
C518        C521   1.360       .  A
O519        C520   1.332       .  A
C520        C521   1.388       .  A
C521        H527   1.083       .  S
O522        C523   1.330       .  A
C523        C524   1.391       .  A
C524        H528   1.083       .  S
C529        C534   1.381       .  A
C529        C530   1.401       .  A
C529        O535   1.317       .  A
C530        C531   1.400       .  A
C530        H541   1.084       .  S
C531        C540   1.360       .  A
C531        C532   1.381       .  A
C532        C533   1.406       .  A
C532        O538   1.321       .  A
C533        C534   1.405       .  A
C533        H542   1.084       .  S
C534        C537   1.364       .  A
O535        C536   1.329       .  A
C536        C537   1.392       .  A
C537        H543   1.083       .  S
O538        C539   1.332       .  A
C539        C540   1.388       .  A
C540        H544   1.083       .  S
C545        C550   1.381       .  A
C545        C546   1.404       .  A
C545        O551   1.319       .  A
C546        C547   1.403       .  A
C546        H557   1.083       .  S
C547        C556   1.362       .  A
C547        C548   1.381       .  A
C548        C549   1.403       .  A
C548        O554   1.319       .  A
C549        C550   1.403       .  A
C549        H558   1.083       .  S
C550        C553   1.362       .  A
O551        C552   1.331       .  A
C552        C553   1.391       .  A
C553        H559   1.083       .  S
O554        C555   1.330       .  A
C555        C556   1.391       .  A
C556        H560   1.083       .  S
C561        C566   1.381       .  A
C561        C562   1.405       .  A
C561        O567   1.320       .  A
C562        C563   1.404       .  A
C562        H573   1.084       .  S
C563        C572   1.364       .  A
C563        C564   1.381       .  A
C564        C565   1.402       .  A
C564        O570   1.318       .  A
C565        C566   1.401       .  A
C565        H574   1.084       .  S
C566        C569   1.361       .  A
O567        C568   1.331       .  A
C568        C569   1.389       .  A
C569        H575   1.083       .  S
O570        C571   1.329       .  A
C571        C572   1.392       .  A
C572        H576   1.083       .  S
C577        C582   1.381       .  A
C577        C578   1.399       .  A
C577        O583   1.316       .  A
C578        C579   1.399       .  A
C578        H589   1.084       .  S
C579        C588   1.357       .  A
C579        C580   1.381       .  A
C580        C581   1.404       .  A
C580        O586   1.319       .  A
C581        C582   1.403       .  A
C581        H590   1.084       .  S
C582        C585   1.362       .  A
O583        C584   1.328       .  A
C584        C585   1.391       .  A
C585        H591   1.083       .  S
O586        C587   1.331       .  A
C587        C588   1.387       .  A
C588        H592   1.083       .  S
C593        C598   1.381       .  A
C593        C594   1.405       .  A
C593        O599   1.321       .  A
C594        C595   1.404       .  A
C594        H605   1.083       .  S
C595        C604   1.363       .  A
C595        C596   1.381       .  A
C596        C597   1.402       .  A
C596        O602   1.318       .  A
C597        C598   1.401       .  A
C597        H606   1.084       .  S
C598        C601   1.360       .  A
O599        C600   1.331       .  A
C600        C601   1.389       .  A
C601        H607   1.083       .  S
O602        C603   1.330       .  A
C603        C604   1.391       .  A
C604        H608   1.083       .  S
C609        C614   1.381       .  A
C609        C610   1.403       .  A
C609        O615   1.319       .  A
C610        C611   1.402       .  A
C610        H621   1.083       .  S
C611        C620   1.363       .  A
C611        C612   1.380       .  A
C612        C613   1.405       .  A
C612        O618   1.319       .  A
C613        C614   1.404       .  A
C613        H622   1.083       .  S
C614        C617   1.364       .  A
O615        C616   1.330       .  A
C616        C617   1.392       .  A
C617        H623   1.083       .  S
O618        C619   1.331       .  A
C619        C620   1.390       .  A
C620        H624   1.083       .  S
C625        C630   1.381       .  A
C625        C626   1.401       .  A
C625        O631   1.318       .  A
C626        C627   1.401       .  A
C626        H637   1.083       .  S
C627        C636   1.359       .  A
C627        C628   1.381       .  A
C628        C629   1.404       .  A
C628        O634   1.320       .  A
C629        C630   1.403       .  A
C629        H638   1.083       .  S
C630        C633   1.362       .  A
O631        C632   1.329       .  A
C632        C633   1.390       .  A
C633        H639   1.083       .  S
O634        C635   1.331       .  A
C635        C636   1.389       .  A
C636        H640   1.083       .  S
C641        C646   1.381       .  A
C641        C642   1.404       .  A
C641        O647   1.320       .  A
C642        C643   1.404       .  A
C642        H653   1.084       .  S
C643        C652   1.363       .  A
C643        C644   1.380       .  A
C644        C645   1.404       .  A
C644        O650   1.319       .  A
C645        C646   1.403       .  A
C645        H654   1.084       .  S
C646        C649   1.362       .  A
O647        C648   1.331       .  A
C648        C649   1.390       .  A
C649        H655   1.083       .  S
O650        C651   1.331       .  A
C651        C652   1.391       .  A
C652        H656   1.083       .  S
C657        C662   1.382       .  A
C657        C658   1.399       .  A
C657        O663   1.315       .  A
C658        C659   1.398       .  A
C658        H669   1.083       .  S
C659        C668   1.358       .  A
C659        C660   1.382       .  A
C660        C661   1.402       .  A
C660        O666   1.317       .  A
C661        C662   1.401       .  A
C661        H670   1.083       .  S
C662        C665   1.361       .  A
O663        C664   1.328       .  A
C664        C665   1.389       .  A
C665        H671   1.083       .  S
O666        C667   1.329       .  A
C667        C668   1.388       .  A
C668        H672   1.083       .  S
C673        C678   1.381       .  A
C673        C674   1.401       .  A
C673        O679   1.317       .  A
C674        C675   1.400       .  A
C674        H685   1.083       .  S
C675        C684   1.359       .  A
C675        C676   1.381       .  A
C676        C677   1.404       .  A
C676        O682   1.320       .  A
C677        C678   1.404       .  A
C677        H686   1.083       .  S
C678        C681   1.363       .  A
O679        C680   1.329       .  A
C680        C681   1.391       .  A
C681        H687   1.083       .  S
O682        C683   1.331       .  A
C683        C684   1.389       .  A
C684        H688   1.083       .  S
C689        C694   1.381       .  A
C689        C690   1.403       .  A
C689        O695   1.319       .  A
C690        C691   1.403       .  A
C690        H701   1.083       .  S
C691        C700   1.362       .  A
C691        C692   1.381       .  A
C692        C693   1.402       .  A
C692        O698   1.318       .  A
C693        C694   1.401       .  A
C693        H702   1.083       .  S
C694        C697   1.361       .  A
O695        C696   1.330       .  A
C696        C697   1.390       .  A
C697        H703   1.083       .  S
O698        C699   1.330       .  A
C699        C700   1.391       .  A
C700        H704   1.083       .  S
C705        C710   1.381       .  A
C705        C706   1.404       .  A
C705        O711   1.319       .  A
C706        C707   1.403       .  A
C706        H717   1.083       .  S
C707        C716   1.363       .  A
C707        C708   1.381       .  A
C708        C709   1.403       .  A
C708        O714   1.319       .  A
C709        C710   1.402       .  A
C709        H718   1.084       .  S
C710        C713   1.361       .  A
O711        C712   1.331       .  A
C712        C713   1.390       .  A
C713        H719   1.083       .  S
O714        C715   1.330       .  A
C715        C716   1.391       .  A
C716        H720   1.083       .  S
C721        C726   1.381       .  A
C721        C722   1.405       .  A
C721        O727   1.320       .  A
C722        C723   1.404       .  A
C722        H733   1.083       .  S
C723        C732   1.364       .  A
C723        C724   1.381       .  A
C724        C725   1.399       .  A
C724        O730   1.315       .  A
C725        C726   1.398       .  A
C725        H734   1.084       .  S
C726        C729   1.357       .  A
O727        C728   1.331       .  A
C728        C729   1.387       .  A
C729        H735   1.083       .  S
O730        C731   1.327       .  A
C731        C732   1.392       .  A
C732        H736   1.083       .  S
C737        C742   1.381       .  A
C737        C738   1.403       .  A
C737        O743   1.319       .  A
C738        C739   1.402       .  A
C738        H749   1.084       .  S
C739        C748   1.362       .  A
C739        C740   1.381       .  A
C740        C741   1.404       .  A
C740        O746   1.319       .  A
C741        C742   1.403       .  A
C741        H750   1.084       .  S
C742        C745   1.362       .  A
O743        C744   1.330       .  A
C744        C745   1.391       .  A
C745        H751   1.083       .  S
O746        C747   1.331       .  A
C747        C748   1.390       .  A
C748        H752   1.083       .  S
C753        C758   1.380       .  A
C753        C754   1.403       .  A
C753        O759   1.319       .  A
C754        C755   1.402       .  A
C754        H765   1.083       .  S
C755        C764   1.362       .  A
C755        C756   1.380       .  A
C756        C757   1.407       .  A
C756        O762   1.322       .  A
C757        C758   1.406       .  A
C757        H766   1.083       .  S
C758        C761   1.366       .  A
O759        C760   1.330       .  A
C760        C761   1.392       .  A
C761        H767   1.083       .  S
O762        C763   1.333       .  A
C763        C764   1.391       .  A
C764        H768   1.083       .  S
C769        C774   1.381       .  A
C769        C770   1.403       .  A
C769        O775   1.319       .  A
C770        C771   1.403       .  A
C770        H781   1.084       .  S
C771        C780   1.361       .  A
C771        C772   1.381       .  A
C772        C773   1.401       .  A
C772        O778   1.317       .  A
C773        C774   1.401       .  A
C773        H782   1.084       .  S
C774        C777   1.359       .  A
O775        C776   1.330       .  A
C776        C777   1.389       .  A
C777        H783   1.083       .  S
O778        C779   1.329       .  A
C779        C780   1.390       .  A
C780        H784   1.083       .  S
C785        C790   1.381       .  A
C785        C786   1.403       .  A
C785        O791   1.319       .  A
C786        C787   1.402       .  A
C786        H797   1.083       .  S
C787        C796   1.361       .  A
C787        C788   1.381       .  A
C788        C789   1.403       .  A
C788        O794   1.319       .  A
C789        C790   1.402       .  A
C789        H798   1.083       .  S
C790        C793   1.360       .  A
O791        C792   1.330       .  A
C792        C793   1.390       .  A
C793        H799   1.083       .  S
O794        C795   1.330       .  A
C795        C796   1.390       .  A
C796        H800   1.083       .  S
C801        C806   1.381       .  A
C801        C802   1.402       .  A
C801        O807   1.317       .  A
C802        C803   1.401       .  A
C802        H813   1.084       .  S
C803        C812   1.361       .  A
C803        C804   1.381       .  A
C804        C805   1.403       .  A
C804        O810   1.318       .  A
C805        C806   1.402       .  A
C805        H814   1.084       .  S
C806        C809   1.362       .  A
O807        C808   1.330       .  A
C808        C809   1.390       .  A
C809        H815   1.083       .  S
O810        C811   1.330       .  A
C811        C812   1.390       .  A
C812        H816   1.083       .  S
C817        C822   1.381       .  A
C817        C818   1.404       .  A
C817        O823   1.321       .  A
C818        C819   1.404       .  A
C818        H829   1.083       .  S
C819        C828   1.362       .  A
C819        C820   1.381       .  A
C820        C821   1.401       .  A
C820        O826   1.318       .  A
C821        C822   1.401       .  A
C821        H830   1.084       .  S
C822        C825   1.358       .  A
O823        C824   1.331       .  A
C824        C825   1.389       .  A
C825        H831   1.083       .  S
O826        C827   1.330       .  A
C827        C828   1.391       .  A
C828        H832   1.083       .  S
C833        C838   1.381       .  A
C833        C834   1.406       .  A
C833        O839   1.322       .  A
C834        C835   1.406       .  A
C834        H845   1.083       .  S
C835        C844   1.365       .  A
C835        C836   1.381       .  A
C836        C837   1.402       .  A
C836        O842   1.319       .  A
C837        C838   1.402       .  A
C837        H846   1.083       .  S
C838        C841   1.360       .  A
O839        C840   1.332       .  A
C840        C841   1.390       .  A
C841        H847   1.083       .  S
O842        C843   1.330       .  A
C843        C844   1.392       .  A
C844        H848   1.083       .  S
C849        C854   1.381       .  A
C849        C850   1.402       .  A
C849        O855   1.318       .  A
C850        C851   1.402       .  A
C850        H861   1.083       .  S
C851        C860   1.361       .  A
C851        C852   1.381       .  A
C852        C853   1.405       .  A
C852        O858   1.320       .  A
C853        C854   1.404       .  A
C853        H862   1.083       .  S
C854        C857   1.363       .  A
O855        C856   1.330       .  A
C856        C857   1.392       .  A
C857        H863   1.083       .  S
O858        C859   1.332       .  A
C859        C860   1.390       .  A
C860        H864   1.083       .  S
C865        C870   1.381       .  A
C865        C866   1.400       .  A
C865        O871   1.315       .  A
C866        C867   1.399       .  A
C866        H877   1.083       .  S
C867        C876   1.359       .  A
C867        C868   1.381       .  A
C868        C869   1.403       .  A
C868        O874   1.317       .  A
C869        C870   1.401       .  A
C869        H878   1.083       .  S
C870        C873   1.362       .  A
O871        C872   1.328       .  A
C872        C873   1.390       .  A
C873        H879   1.083       .  S
O874        C875   1.330       .  A
C875        C876   1.388       .  A
C876        H880   1.083       .  S
C881        C886   1.381       .  A
C881        C882   1.404       .  A
C881        O887   1.320       .  A
C882        C883   1.403       .  A
C882        H893   1.083       .  S
C883        C892   1.363       .  A
C883        C884   1.380       .  A
C884        C885   1.406       .  A
C884        O890   1.321       .  A
C885        C886   1.405       .  A
C885        H894   1.084       .  S
C886        C889   1.365       .  A
O887        C888   1.330       .  A
C888        C889   1.393       .  A
C889        H895   1.083       .  S
O890        C891   1.332       .  A
C891        C892   1.390       .  A
C892        H896   1.083       .  S
C897        C902   1.381       .  A
C897        C898   1.404       .  A
C897        O903   1.319       .  A
C898        C899   1.403       .  A
C898        H909   1.084       .  S
C899        C908   1.363       .  A
C899        C900   1.381       .  A
C900        C901   1.404       .  A
C900        O906   1.319       .  A
C901        C902   1.403       .  A
C901        H910   1.084       .  S
C902        C905   1.364       .  A
O903        C904   1.330       .  A
C904        C905   1.391       .  A
C905        H911   1.083       .  S
O906        C907   1.331       .  A
C907        C908   1.390       .  A
C908        H912   1.083       .  S
C913        C918   1.381       .  A
C913        C914   1.401       .  A
C913        O919   1.317       .  A
C914        C915   1.401       .  A
C914        H925   1.084       .  S
C915        C924   1.359       .  A
C915        C916   1.381       .  A
C916        C917   1.407       .  A
C916        O922   1.322       .  A
C917        C918   1.406       .  A
C917        H926   1.083       .  S
C918        C921   1.365       .  A
O919        C920   1.329       .  A
C920        C921   1.393       .  A
C921        H927   1.083       .  S
O922        C923   1.332       .  A
C923        C924   1.389       .  A
C924        H928   1.083       .  S
C929        C934   1.381       .  A
C929        C930   1.403       .  A
C929        O935   1.318       .  A
C930        C931   1.402       .  A
C930        H941   1.084       .  S
C931        C940   1.363       .  A
C931        C932   1.381       .  A
C932        C933   1.406       .  A
C932        O938   1.320       .  A
C933        C934   1.405       .  A
C933        H942   1.084       .  S
C934        C937   1.365       .  A
O935        C936   1.330       .  A
C936        C937   1.393       .  A
C937        H943   1.083       .  S
O938        C939   1.332       .  A
C939        C940   1.389       .  A
C940        H944   1.083       .  S
C945        C950   1.381       .  A
C945        C946   1.403       .  A
C945        O951   1.319       .  A
C946        C947   1.402       .  A
C946        H957   1.084       .  S
C947        C956   1.361       .  A
C947        C948   1.381       .  A
C948        C949   1.404       .  A
C948        O954   1.319       .  A
C949        C950   1.403       .  A
C949        H958   1.084       .  S
C950        C953   1.362       .  A
O951        C952   1.330       .  A
C952        C953   1.391       .  A
C953        H959   1.083       .  S
O954        C955   1.331       .  A
C955        C956   1.390       .  A
C956        H960   1.083       .  S
C961        C966   1.381       .  A
C961        C962   1.405       .  A
C961        O967   1.320       .  A
C962        C963   1.405       .  A
C962        H973   1.083       .  S
C963        C972   1.364       .  A
C963        C964   1.381       .  A
C964        C965   1.403       .  A
C964        O970   1.319       .  A
C965        C966   1.402       .  A
C965        H974   1.083       .  S
C966        C969   1.361       .  A
O967        C968   1.332       .  A
C968        C969   1.390       .  A
C969        H975   1.083       .  S
O970        C971   1.330       .  A
C971        C972   1.392       .  A
C972        H976   1.083       .  S
C977        C982   1.381       .  A
C977        C978   1.403       .  A
C977        O983   1.318       .  A
C978        C979   1.402       .  A
C978        H989   1.083       .  S
C979        C988   1.362       .  A
C979        C980   1.381       .  A
C980        C981   1.402       .  A
C980        O986   1.317       .  A
C981        C982   1.401       .  A
C981        H990   1.083       .  S
C982        C985   1.361       .  A
O983        C984   1.330       .  A
C984        C985   1.390       .  A
C985        H991   1.083       .  S
O986        C987   1.329       .  A
C987        C988   1.390       .  A
C988        H992   1.083       .  S
C993        C998   1.381       .  A
C993        C994   1.403       .  A
C993        O999   1.319       .  A
C994        C995   1.403       .  A
C994       H1005   1.083       .  S
C995       C1004   1.362       .  A
C995        C996   1.381       .  A
C996        C997   1.403       .  A
C996       O1002   1.319       .  A
C997        C998   1.403       .  A
C997       H1006   1.083       .  S
C998       C1001   1.362       .  A
O999       C1000   1.331       .  A
C1000      C1001   1.390       .  A
C1001      H1007   1.083       .  S
O1002      C1003   1.330       .  A
C1003      C1004   1.391       .  A
C1004      H1008   1.083       .  S
C1009      C1014   1.381       .  A
C1009      C1010   1.400       .  A
C1009      O1015   1.316       .  A
C1010      C1011   1.399       .  A
C1010      H1021   1.084       .  S
C1011      C1020   1.359       .  A
C1011      C1012   1.381       .  A
C1012      C1013   1.404       .  A
C1012      O1018   1.319       .  A
C1013      C1014   1.403       .  A
C1013      H1022   1.084       .  S
C1014      C1017   1.362       .  A
O1015      C1016   1.328       .  A
C1016      C1017   1.391       .  A
C1017      H1023   1.083       .  S
O1018      C1019   1.331       .  A
C1019      C1020   1.388       .  A
C1020      H1024   1.083       .  S
C1025      C1030   1.381       .  A
C1025      C1026   1.403       .  A
C1025      O1031   1.319       .  A
C1026      C1027   1.403       .  A
C1026      H1037   1.083       .  S
C1027      C1036   1.362       .  A
C1027      C1028   1.381       .  A
C1028      C1029   1.400       .  A
C1028      O1034   1.317       .  A
C1029      C1030   1.399       .  A
C1029      H1038   1.083       .  S
C1030      C1033   1.357       .  A
O1031      C1032   1.330       .  A
C1032      C1033   1.388       .  A
C1033      H1039   1.083       .  S
O1034      C1035   1.329       .  A
C1035      C1036   1.391       .  A
C1036      H1040   1.083       .  S
C1041      C1046   1.381       .  A
C1041      C1042   1.403       .  A
C1041      O1047   1.319       .  A
C1042      C1043   1.403       .  A
C1042      H1053   1.084       .  S
C1043      C1052   1.360       .  A
C1043      C1044   1.382       .  A
C1044      C1045   1.400       .  A
C1044      O1050   1.318       .  A
C1045      C1046   1.400       .  A
C1045      H1054   1.084       .  S
C1046      C1049   1.358       .  A
O1047      C1048   1.331       .  A
C1048      C1049   1.389       .  A
C1049      H1055   1.083       .  S
O1050      C1051   1.328       .  A
C1051      C1052   1.390       .  A
C1052      H1056   1.083       .  S
C1057      C1062   1.381       .  A
C1057      C1058   1.401       .  A
C1057      O1063   1.316       .  A
C1058      C1059   1.400       .  A
C1058      H1069   1.084       .  S
C1059      C1068   1.360       .  A
C1059      C1060   1.381       .  A
C1060      C1061   1.401       .  A
C1060      O1066   1.316       .  A
C1061      C1062   1.400       .  A
C1061      H1070   1.084       .  S
C1062      C1065   1.360       .  A
O1063      C1064   1.329       .  A
C1064      C1065   1.389       .  A
C1065      H1071   1.083       .  S
O1066      C1067   1.329       .  A
C1067      C1068   1.390       .  A
C1068      H1072   1.083       .  S
C1073      C1078   1.380       .  A
C1073      C1074   1.406       .  A
C1073      O1079   1.320       .  A
C1074      C1075   1.404       .  A
C1074      H1085   1.084       .  S
C1075      C1084   1.365       .  A
C1075      C1076   1.381       .  A
C1076      C1077   1.402       .  A
C1076      O1082   1.317       .  A
C1077      C1078   1.401       .  A
C1077      H1086   1.084       .  S
C1078      C1081   1.362       .  A
O1079      C1080   1.332       .  A
C1080      C1081   1.390       .  A
C1081      H1087   1.083       .  S
O1082      C1083   1.330       .  A
C1083      C1084   1.392       .  A
C1084      H1088   1.083       .  S
C1089      C1094   1.381       .  A
C1089      C1090   1.401       .  A
C1089      O1095   1.316       .  A
C1090      C1091   1.400       .  A
C1090      H1101   1.084       .  S
C1091      C1100   1.359       .  A
C1091      C1092   1.381       .  A
C1092      C1093   1.402       .  A
C1092      O1098   1.317       .  A
C1093      C1094   1.401       .  A
C1093      H1102   1.084       .  S
C1094      C1097   1.360       .  A
O1095      C1096   1.328       .  A
C1096      C1097   1.389       .  A
C1097      H1103   1.083       .  S
O1098      C1099   1.330       .  A
C1099      C1100   1.389       .  A
C1100      H1104   1.083       .  S
