geometry optimzed in LAMMPS
_audit_creation_date              2020-12-01 
_audit_creation_method            'lammps2cif' 
_symmetry_space_group_name_H-M    'P1' 
_symmetry_Int_Tables_number       1 
_symmetry_cell_setting            triclinic 
loop_ 
_symmetry_equiv_pos_as_xyz 
  x,y,z 
_cell_length_a                    52.40693453 
_cell_length_b                    52.52968974816006 
_cell_length_c                    52.58934558772442 
_cell_angle_alpha                 90.03181428268152 
_cell_angle_beta                  90.1235806223422 
_cell_angle_gamma                 89.88431808858387 
loop_ 
_atom_site_label 
_atom_site_type_symbol 
_atom_site_fract_x 
_atom_site_fract_y 
_atom_site_fract_z 
_atom_site_charge 
O1          O  0.89508967  0.53735056  0.85311292    -0.72100
O2          O  0.85489667  0.48903933  0.89510888    -0.73100
O3          O  0.89146033  0.48389065  0.85609256    -0.61700
O4          O  0.85836197  0.54248576  0.89183197    -0.70100
O5          O  0.82785021  0.54313970  0.86261123    -0.69700
O6          O  0.86047573  0.48406671  0.82736323    -0.60900
O7          O  0.82369919  0.48977370  0.86655124    -0.73400
O8          O  0.86469449  0.53774985  0.82376322    -0.72200
Cu9        Cu  0.87602415  0.51317343  0.87500951     1.04600
Cu10       Cu  0.84310756  0.51368090  0.84402501     1.04300
C11         C  0.88640884  0.54529355  0.83185327     0.94100
C12         C  0.83282102  0.48194563  0.88771306     0.93200
C13         C  0.88124385  0.47467542  0.83601962     0.85400
C14         C  0.83771426  0.55199984  0.88298074     0.91700
O15         O  0.74436320  0.67860329  0.01343161    -0.72100
O16         O  0.70274831  0.71053802  0.06902637    -0.73100
O17         O  0.74233596  0.67407040  0.06714743    -0.61700
O18         O  0.70479516  0.71518059  0.01505296    -0.70100
O19         O  0.67632684  0.68425595  0.01144492    -0.69700
O20         O  0.71334796  0.64362001  0.06351582    -0.60900
O21         O  0.67397781  0.67992162  0.06483149    -0.73400
O22         O  0.71553788  0.64797448  0.01024780    -0.72200
Cu23       Cu  0.72457869  0.69573514  0.04131482     1.04600
Cu24       Cu  0.69382479  0.66292605  0.03739476     1.04300
C25         C  0.73640796  0.65809304  0.00302466     0.94100
C26         C  0.68177645  0.70015620  0.07576127     0.93200
C27         C  0.73370552  0.65230986  0.07363480     0.85400
C28         C  0.68473829  0.70599324  0.00470052     0.91700
O29         O  0.51325830  0.79124881  0.86753721    -0.72100
O30         O  0.56133119  0.83286841  0.82644645    -0.73100
O31         O  0.56657458  0.79556784  0.86478499    -0.61700
O32         O  0.50784080  0.82852128  0.82901981    -0.70100
O33         O  0.50677973  0.85862189  0.85855085    -0.69700
O34         O  0.56556189  0.82593915  0.89402919    -0.60900
O35         O  0.56006609  0.86311188  0.85584145    -0.73400
O36         O  0.51240369  0.82157234  0.89686398    -0.72200
Cu37       Cu  0.53726763  0.81099050  0.84588307     1.04600
Cu38       Cu  0.53615824  0.84336431  0.87731795     1.04300
C39         C  0.50548263  0.79970575  0.88893624     0.94100
C40         C  0.56828545  0.85465935  0.83463398     0.93200
C41         C  0.57516486  0.80536526  0.88531547     0.85400
C42         C  0.49814299  0.84896172  0.83799266     0.91700
O43         O  0.73891853  0.02897518  0.69877786    -0.72100
O44         O  0.70060467  0.97772492  0.73967391    -0.73100
O45         O  0.73917855  0.97540619  0.70235631    -0.61700
O46         O  0.69997909  0.03117942  0.73649291    -0.70100
O47         O  0.67050711  0.02902553  0.70630794    -0.69700
O48         O  0.70957575  0.97324468  0.67225601    -0.60900
O49         O  0.67123122  0.97570518  0.70932351    -0.73400
O50         O  0.70937191  0.02675038  0.66866854    -0.72200
Cu51       Cu  0.72072411  0.00347313  0.72037621     1.04600
Cu52       Cu  0.68916639  0.00119774  0.68808543     1.04300
C53         C  0.73051517  0.03554954  0.67691541     0.94100
C54         C  0.67981668  0.96858352  0.73088889     0.93200
C55         C  0.73048471  0.96535779  0.68198166     0.85400
C56         C  0.67863783  0.03845951  0.72720371     0.91700
O57         O  0.06926789  0.67345864  0.74397841    -0.72100
O58         O  0.01876923  0.71096603  0.70129535    -0.73100
O59         O  0.01563642  0.67526459  0.74108976    -0.61700
O60         O  0.07265101  0.70926509  0.70356248    -0.70100
O61         O  0.07214520  0.67805066  0.67519583    -0.69700
O62         O  0.01658127  0.64375832  0.71304855    -0.60900
O63         O  0.01864293  0.67939685  0.67329145    -0.73400
O64         O  0.07041262  0.64256730  0.71507346    -0.72200
Cu65       Cu  0.04413725  0.69338260  0.72348007     1.04600
Cu66       Cu  0.04449933  0.65984751  0.69320745     1.04300
C67         C  0.07768687  0.65202969  0.73622706     0.94100
C68         C  0.01043978  0.70104920  0.68073549     0.93200
C69         C  0.00708735  0.65402167  0.73290810     0.85400
C70         C  0.08106658  0.69919538  0.68307172     0.91700
O71         O  0.85496408  0.85623070  0.56491211    -0.72100
O72         O  0.89187915  0.81760844  0.51086871    -0.73100
O73         O  0.85438514  0.85518374  0.51147844    -0.61700
O74         O  0.89329854  0.81841073  0.56438796    -0.70100
O75         O  0.86400447  0.78801660  0.56555912    -0.69700
O76         O  0.82417524  0.82569527  0.51263839    -0.60900
O77         O  0.86192562  0.78788094  0.51194590    -0.73400
O78         O  0.82537231  0.82619600  0.56649102    -0.72200
Cu79       Cu  0.87464277  0.83788225  0.53801041     1.04600
Cu80       Cu  0.84278146  0.80588866  0.53931593     1.04300
C81         C  0.83410708  0.84761782  0.57398306     0.94100
C82         C  0.88240910  0.79687206  0.50243018     0.93200
C83         C  0.83347384  0.84605428  0.50316889     0.85400
C84         C  0.88532034  0.79719180  0.57298446     0.91700
O85         O  0.50585231  0.18378559  0.89200686    -0.72100
O86         O  0.55486799  0.14392209  0.85008866    -0.73100
O87         O  0.55960235  0.18287700  0.88688721    -0.61700
O88         O  0.50117873  0.14502457  0.85489974    -0.70100
O89         O  0.49882165  0.17424477  0.82463786    -0.69700
O90         O  0.55690120  0.21203008  0.85658631    -0.60900
O91         O  0.55254586  0.17290116  0.81956136    -0.73400
O92         O  0.50302606  0.21308629  0.86184289    -0.72200
Cu93       Cu  0.53044018  0.16290996  0.87202152     1.04600
Cu94       Cu  0.52773655  0.19410117  0.83960474     1.04300
C95         C  0.49667164  0.20473330  0.88375925     0.94100
C96         C  0.56146868  0.15193147  0.82816408     0.93200
C97         C  0.56748655  0.20355241  0.87678892     0.85400
C98         C  0.49089227  0.15352971  0.83451974     0.91700
O99         O  0.71005371  0.36667823  0.00366116    -0.72100
O100        O  0.67152630  0.31942920  0.04910499    -0.73100
O101        O  0.70648733  0.35939085  0.05666804    -0.61700
O102        O  0.67447540  0.32643267  0.99601041    -0.70100
O103        O  0.70609272  0.29848412  0.99390443    -0.69700
O104        O  0.73840035  0.33174054  0.05487176    -0.60900
O105        O  0.70333284  0.29161390  0.04705371    -0.73400
O106        O  0.74172295  0.33873094  0.00162433    -0.72200
Cu107      Cu  0.68953702  0.34394047  0.02632748     1.04600
Cu108      Cu  0.72352103  0.31419284  0.02423416     1.04300
C109        C  0.73222352  0.36035076  0.99576498     0.94100
C110        C  0.68145259  0.29813896  0.05548505     0.93200
C111        C  0.72753879  0.35081259  0.06545692     0.85400
C112        C  0.68466718  0.30686870  0.98573628     0.91700
O113        O  0.88855689  0.46757333  0.20998331    -0.72100
O114        O  0.84987649  0.52318698  0.17583692    -0.73100
O115        O  0.89013364  0.52127974  0.21095679    -0.61700
O116        O  0.84797836  0.46973521  0.17456702    -0.70100
O117        O  0.81987952  0.46948481  0.20596138    -0.69700
O118        O  0.86203133  0.52193000  0.24236791    -0.60900
O119        O  0.82143903  0.52328383  0.20699694    -0.73400
O120        O  0.86084665  0.46803307  0.24178515    -0.72200
Cu121      Cu  0.87007667  0.49536389  0.19176756     1.04600
Cu122      Cu  0.84006141  0.49562350  0.22542856     1.04300
C123        C  0.88112871  0.45926014  0.23152325     0.94100
C124        C  0.82959156  0.53208370  0.18590682     0.93200
C125        C  0.88263235  0.53009955  0.23228714     0.85400
C126        C  0.82714645  0.46163813  0.18412229     0.91700
O127        O  0.00303781  0.67157870  0.32110981    -0.72100
O128        O  0.05203587  0.71369535  0.36161725    -0.73100
O129        O  0.05681766  0.67597078  0.32321196    -0.61700
O130        O  0.99833869  0.70922668  0.35971170    -0.70100
O131        O  0.00035241  0.67905192  0.38906456    -0.69700
O132        O  0.05807466  0.64604376  0.35285917    -0.60900
O133        O  0.05369815  0.68349031  0.39097539    -0.73400
O134        O  0.00464555  0.64168271  0.35077778    -0.72200
Cu135      Cu  0.02748533  0.69368953  0.34034589     1.04600
Cu136      Cu  0.02921775  0.66154608  0.37190828     1.04300
C137        C  0.99618815  0.64982786  0.32948078     0.94100
C138        C  0.06062217  0.70526420  0.38275977     0.93200
C139        C  0.06659416  0.65556625  0.33224009     0.85400
C140        C  0.99040945  0.69952507  0.38052979     0.91700
O141        O  0.24549974  0.82995417  0.55204169    -0.72100
O142        O  0.20300554  0.79577716  0.49839084    -0.73100
O143        O  0.24185681  0.83322874  0.49830933    -0.61700
O144        O  0.20695009  0.79235060  0.55195438    -0.70100
O145        O  0.17743096  0.82239409  0.55565131    -0.69700
O146        O  0.21261935  0.86349708  0.50223668    -0.60900
O147        O  0.17382481  0.82610567  0.50222567    -0.73400
O148        O  0.21567287  0.85970358  0.55577381    -0.72200
Cu149      Cu  0.22537136  0.81176537  0.52499160     1.04600
Cu150      Cu  0.19388597  0.84396618  0.52905299     1.04300
C151        C  0.23702352  0.85018635  0.56262095     0.94100
C152        C  0.18153345  0.80544917  0.49198593     0.93200
C153        C  0.23291486  0.85491172  0.49184104     0.85400
C154        C  0.18674544  0.80096273  0.56245142     0.91700
O155        O  0.35229184  0.02428790  0.67744064    -0.72100
O156        O  0.39308505  0.97127998  0.71445874    -0.73100
O157        O  0.35573979  0.97064558  0.67557504    -0.61700
O158        O  0.39001350  0.02500993  0.71578913    -0.70100
O159        O  0.35994101  0.02295749  0.74523253    -0.69700
O160        O  0.32548205  0.96769342  0.70477748    -0.60900
O161        O  0.36275701  0.96914504  0.74366241    -0.73400
O162        O  0.32216289  0.02133844  0.70679717    -0.72200
Cu163      Cu  0.37384521  0.99788586  0.69480883     1.04600
Cu164      Cu  0.34154175  0.99518021  0.72614572     1.04300
C165        C  0.33066089  0.03115278  0.68632396     0.94100
C166        C  0.38429514  0.96183448  0.73504329     0.93200
C167        C  0.33513751  0.96057511  0.68361161     0.85400
C168        C  0.38057507  0.03275390  0.73676081     0.91700
O169        O  0.70811715  0.01527767  0.32133095    -0.72100
O170        O  0.74566427  0.96224759  0.36021259    -0.73100
O171        O  0.70624350  0.96175078  0.32339771    -0.61700
O172        O  0.74734014  0.01576867  0.35836869    -0.70100
O173        O  0.71782424  0.01809933  0.38841095    -0.69700
O174        O  0.67751569  0.96398372  0.35418514    -0.60900
O175        O  0.71665303  0.96489019  0.39073194    -0.73400
O176        O  0.67882137  0.01725042  0.35162179    -0.72200
Cu177      Cu  0.72787394  0.98868654  0.33972477     1.04600
Cu178      Cu  0.69671601  0.99112502  0.37228853     1.04300
C179        C  0.68737199  0.02447052  0.33012168     0.94100
C180        C  0.73722177  0.95537934  0.38186487     0.93200
C181        C  0.68524436  0.95439917  0.33327962     0.85400
C182        C  0.73903263  0.02540867  0.37908940     0.91700
O183        O  0.50202390  0.81557096  0.17615973    -0.72100
O184        O  0.55371461  0.85349840  0.21605536    -0.73100
O185        O  0.55565168  0.81394761  0.18043847    -0.61700
O186        O  0.50012305  0.85516950  0.21212573    -0.70100
O187        O  0.49718256  0.82712680  0.24341938    -0.69700
O188        O  0.55219228  0.78499285  0.21092831    -0.60900
O189        O  0.55137313  0.82508552  0.24707070    -0.73400
O190        O  0.49823671  0.78720002  0.20706988    -0.72200
Cu191      Cu  0.52794937  0.83548119  0.19515667     1.04600
Cu192      Cu  0.52460438  0.80507780  0.22826459     1.04300
C193        C  0.49182942  0.79546690  0.18509611     0.94100
C194        C  0.56108251  0.84531746  0.23767451     0.93200
C195        C  0.56274992  0.79301033  0.19058644     0.85400
C196        C  0.48992509  0.84785466  0.23290619     0.91700
O197        O  0.23832240  0.46418450  0.86666570    -0.72100
O198        O  0.20036966  0.51660317  0.82652397    -0.73100
O199        O  0.24004455  0.51762033  0.86311904    -0.61700
O200        O  0.19880046  0.46283525  0.82996682    -0.70100
O201        O  0.16956943  0.46628942  0.86014255    -0.69700
O202        O  0.21163627  0.52009945  0.89417112    -0.60900
O203        O  0.17225072  0.52030400  0.85786771    -0.73400
O204        O  0.20903080  0.46682161  0.89688482    -0.72200
Cu205      Cu  0.22034296  0.49018158  0.84543861     1.04600
Cu206      Cu  0.18956456  0.49343606  0.87827990     1.04300
C207        C  0.22984182  0.45751554  0.88841382     0.94100
C208        C  0.18063404  0.52710702  0.83616858     0.93200
C209        C  0.23259419  0.52729724  0.88411777     0.85400
C210        C  0.17764281  0.45583213  0.83972363     0.91700
O211        O  0.39138963  0.67334239  0.05833926    -0.72100
O212        O  0.35768077  0.63575895  0.00160955    -0.73100
O213        O  0.39648614  0.67295765  0.00524991    -0.61700
O214        O  0.35266881  0.63638064  0.05490807    -0.70100
O215        O  0.32350939  0.66687701  0.05195479    -0.69700
O216        O  0.36728488  0.70340462  0.00227866    -0.60900
O217        O  0.32851371  0.66621435  0.99865292    -0.73400
O218        O  0.36237360  0.70395920  0.05542174    -0.72200
Cu219      Cu  0.37555680  0.65352955  0.03009193     1.04600
Cu220      Cu  0.34439082  0.68616994  0.02692799     1.04300
C221        C  0.38241997  0.69468914  0.06576521     0.94100
C222        C  0.33751270  0.64482242  0.99134078     0.93200
C223        C  0.38901924  0.69427380  0.99624049     0.85400
C224        C  0.33115186  0.64580645  0.06135348     0.91700
O225        O  0.24159491  0.53273309  0.20322882    -0.72100
O226        O  0.20864391  0.48035149  0.24768862    -0.73100
O227        O  0.24417294  0.47901911  0.20743404    -0.61700
O228        O  0.20635639  0.53407912  0.24373001    -0.70100
O229        O  0.17464241  0.53080446  0.21597797    -0.69700
O230        O  0.21270666  0.47561779  0.17942986    -0.60900
O231        O  0.17730382  0.47695743  0.21947057    -0.73400
O232        O  0.20983330  0.52911179  0.17555863    -0.72200
Cu233      Cu  0.22630609  0.50669315  0.22649581     1.04600
Cu234      Cu  0.19249127  0.50303060  0.19668206     1.04300
C235        C  0.23094023  0.53911846  0.18228180     0.94100
C236        C  0.18780556  0.47012786  0.24030388     0.93200
C237        C  0.23451470  0.46850912  0.18775821     0.85400
C238        C  0.18451787  0.54123056  0.23564143     0.91700
O239        O  0.36042052  0.36372779  0.06893508    -0.72100
O240        O  0.39826343  0.32796173  0.01286863    -0.73100
O241        O  0.35834029  0.36411591  0.01522285    -0.61700
O242        O  0.40083291  0.32771104  0.06658786    -0.70100
O243        O  0.37232543  0.29660687  0.06769662    -0.69700
O244        O  0.33008363  0.33277611  0.01615272    -0.60900
O245        O  0.36986305  0.29680214  0.01429309    -0.73400
O246        O  0.33218839  0.33237554  0.06943169    -0.72200
Cu247      Cu  0.38048872  0.34700795  0.04091406     1.04600
Cu248      Cu  0.35017743  0.31356994  0.04196359     1.04300
C249        C  0.33996435  0.35382816  0.07770502     0.94100
C250        C  0.38992834  0.30659631  0.00471836     0.93200
C251        C  0.33745471  0.35424254  0.00755509     0.85400
C252        C  0.39340792  0.30622782  0.07512505     0.91700
O253        O  0.56954733  0.16923524  0.16701608    -0.72100
O254        O  0.51462494  0.13742813  0.20890884    -0.73100
O255        O  0.51615237  0.17450574  0.16987611    -0.61700
O256        O  0.56830235  0.13241811  0.20614819    -0.70100
O257        O  0.57218009  0.16296776  0.23499711    -0.69700
O258        O  0.52086744  0.20484717  0.19882971    -0.60900
O259        O  0.51876760  0.16786119  0.23779073    -0.73400
O260        O  0.57405386  0.19954012  0.19599658    -0.72200
Cu261      Cu  0.54199845  0.15228636  0.18698589     1.04600
Cu262      Cu  0.54662327  0.18482143  0.21791575     1.04300
C263        C  0.58029034  0.18963986  0.17468549     0.94100
C264        C  0.50794833  0.14750502  0.22998799     0.93200
C265        C  0.51056104  0.19656888  0.17846310     0.85400
C266        C  0.57841144  0.14111028  0.22649234     0.91700
O267        O  0.04680592  0.29008302  0.70546912    -0.72100
O268        O  0.99447905  0.33028401  0.74423137    -0.73100
O269        O  0.99309242  0.29378718  0.70442204    -0.61700
O270        O  0.04848366  0.32657444  0.74551056    -0.70100
O271        O  0.05089234  0.35744481  0.71694262    -0.69700
O272        O  0.99538476  0.32472701  0.67584288    -0.60900
O273        O  0.99699719  0.36102480  0.71552271    -0.73400
O274        O  0.04940399  0.32120478  0.67712281    -0.72200
Cu275      Cu  0.02061455  0.30911383  0.72592315     1.04600
Cu276      Cu  0.02325933  0.34218757  0.69539824     1.04300
C277        C  0.05628859  0.29926270  0.68506605     0.94100
C278        C  0.98741293  0.35206431  0.73593622     0.93200
C279        C  0.98565248  0.30384230  0.68355838     0.85400
C280        C  0.05849158  0.34730768  0.73771445     0.91700
O281        O  0.89232704  0.17991831  0.55366479    -0.72100
O282        O  0.85941318  0.13678900  0.50049338    -0.73100
O283        O  0.89422360  0.17764164  0.50019249    -0.61700
O284        O  0.85720029  0.13877619  0.55409298    -0.70100
O285        O  0.82519681  0.16627191  0.55161482    -0.69700
O286        O  0.86253675  0.20554056  0.49808022    -0.60900
O287        O  0.82762975  0.16455260  0.49792836    -0.73400
O288        O  0.86032943  0.20751863  0.55185996    -0.72200
Cu289      Cu  0.87689274  0.15734526  0.52725129     1.04600
Cu290      Cu  0.84277369  0.18691763  0.52483769     1.04300
C291        C  0.88193224  0.20069972  0.56090149     0.94100
C292        C  0.83830965  0.14391069  0.49063368     0.93200
C293        C  0.88436387  0.19771401  0.49058017     0.85400
C294        C  0.83506138  0.14614377  0.56112742     0.91700
O295        O  0.17205408  0.17739668  0.51108319    -0.72100
O296        O  0.20536733  0.13837552  0.56716184    -0.73100
O297        O  0.16684552  0.17640279  0.56438116    -0.61700
O298        O  0.21038502  0.13958350  0.51355144    -0.70100
O299        O  0.23976706  0.16967361  0.51682950    -0.69700
O300        O  0.19668668  0.20599873  0.56860316    -0.60900
O301        O  0.23510121  0.16813364  0.57045877    -0.73400
O302        O  0.20116738  0.20772134  0.51506948    -0.72200
Cu303      Cu  0.18766449  0.15687544  0.53895460     1.04600
Cu304      Cu  0.21923276  0.18891106  0.54286323     1.04300
C305        C  0.18109114  0.19893932  0.50444818     0.94100
C306        C  0.22565071  0.14691964  0.57757824     0.93200
C307        C  0.17477394  0.19711509  0.57438830     0.85400
C308        C  0.23192920  0.14883626  0.50699262     0.91700
O309        O  0.32734639  0.03695702  0.36408453    -0.72100
O310        O  0.36310841  0.98399527  0.32163671    -0.73100
O311        O  0.32464529  0.98323912  0.35979251    -0.61700
O312        O  0.36579388  0.03788507  0.32586005    -0.70100
O313        O  0.39551451  0.03408067  0.35563203    -0.69700
O314        O  0.35475806  0.97929352  0.38919296    -0.60900
O315        O  0.39286162  0.98049901  0.35140699    -0.73400
O316        O  0.35714936  0.03278165  0.39372528    -0.72200
Cu317      Cu  0.34418801  0.01069124  0.34176917     1.04600
Cu318      Cu  0.37609541  0.00657940  0.37347865     1.04300
C319        C  0.33639174  0.04290233  0.38589915     0.94100
C320        C  0.38365866  0.97374746  0.32994430     0.93200
C321        C  0.33318512  0.97268719  0.37998728     0.85400
C322        C  0.38731484  0.04448895  0.33523988     0.91700
O323        O  0.06783942  0.33180514  0.32726974    -0.72100
O324        O  0.01080268  0.29265705  0.35981517    -0.73100
O325        O  0.01385900  0.33159541  0.32250672    -0.61700
O326        O  0.06464068  0.29285870  0.36429532    -0.70100
O327        O  0.06157110  0.32189658  0.39473773    -0.69700
O328        O  0.01154270  0.36091425  0.35276066    -0.60900
O329        O  0.00798242  0.32215792  0.38980873    -0.73400
O330        O  0.06498139  0.36075497  0.35782402    -0.72200
Cu331      Cu  0.03937875  0.31119605  0.34238137     1.04600
Cu332      Cu  0.03643039  0.34242629  0.37481067     1.04300
C333        C  0.07533710  0.35261232  0.33743125     0.94100
C334        C  0.00046043  0.30116819  0.38011719     0.93200
C335        C  0.00476483  0.35251956  0.33099039     0.85400
C336        C  0.07105094  0.30116974  0.38621212     0.91700
C337        C  0.15710667  0.25457389  0.46545410    -0.27400
C338        C  0.13865918  0.24273348  0.45017110     0.06300
C339        C  0.13534744  0.21625871  0.45171906     0.25900
C340        C  0.14972871  0.20204759  0.46896924    -0.11800
C341        C  0.16772586  0.21394848  0.48482592    -0.25800
C342        C  0.17159272  0.24037558  0.48264274     0.36700
C343        C  0.12214375  0.25821684  0.43352448     0.06300
F344        F  0.11742612  0.20431167  0.43738199    -0.19600
H345        H  0.14643477  0.18172212  0.47022313     0.16100
F346        F  0.18854843  0.25271422  0.49778677    -0.23300
H347        H  0.16001299  0.27497137  0.46432067     0.17900
C348        C  0.10824389  0.27876997  0.44354766     0.25900
C349        C  0.09200259  0.29284490  0.42792098    -0.11800
C350        C  0.08919332  0.28661271  0.40207958    -0.25800
C351        C  0.10338133  0.26615374  0.39200792     0.36800
C352        C  0.11970827  0.25213990  0.40767600    -0.27500
F353        F  0.10968380  0.28467327  0.46864948    -0.19600
H354        H  0.08120471  0.30835668  0.43624757     0.16100
F355        F  0.10162594  0.25968892  0.36707378    -0.23300
H356        H  0.13050906  0.23647792  0.39962099     0.17900
C357        C  0.28811009  0.12828851  0.46601817    -0.27400
C358        C  0.27740669  0.10817179  0.45210273     0.06300
C359        C  0.25174815  0.10168690  0.45607453     0.25900
C360        C  0.23712720  0.11504621  0.47384851    -0.11800
C361        C  0.24773420  0.13524432  0.48789867    -0.25800
C362        C  0.27343903  0.14188043  0.48362589     0.36700
C363        C  0.29342781  0.09304032  0.43457533     0.06300
F364        F  0.24108450  0.08185057  0.44338780    -0.19600
H365        H  0.21745741  0.10945042  0.47667869     0.16100
F366        F  0.28463332  0.16110755  0.49677032    -0.23300
H367        H  0.30793043  0.13340440  0.46326811     0.17900
C368        C  0.28704899  0.09064356  0.40873042     0.25900
C369        C  0.30143009  0.07478596  0.39285311    -0.11800
C370        C  0.32241655  0.06105223  0.40246686    -0.25800
C371        C  0.32909296  0.06406256  0.42830341     0.36800
C372        C  0.31474938  0.07998967  0.44407246    -0.27500
F373        F  0.26693261  0.10366238  0.39887901    -0.19600
H374        H  0.29593803  0.07305555  0.37305838     0.16100
F375        F  0.34891001  0.05099361  0.43867392    -0.23300
H376        H  0.31984116  0.08156131  0.46399570     0.17900
C377        C  0.93595557  0.21786625  0.44441312    -0.27400
C378        C  0.92724492  0.24197020  0.43678431     0.06300
C379        C  0.90339076  0.25061656  0.44551551     0.25900
C380        C  0.88929087  0.23591427  0.46259549    -0.11800
C381        C  0.89853439  0.21222308  0.47105428    -0.25800
C382        C  0.92178028  0.20304282  0.46121182     0.36700
C383        C  0.94382951  0.25808202  0.42063631     0.06300
F384        F  0.89364034  0.27318700  0.43748016    -0.19600
H385        H  0.87126652  0.24330051  0.46947474     0.16100
F386        F  0.93112502  0.17990218  0.46801044    -0.23300
H387        H  0.95421401  0.21072793  0.43788065     0.17900
C388        C  0.94922168  0.28341011  0.42744231     0.25900
C389        C  0.96700707  0.29747253  0.41362635    -0.11800
C390        C  0.98005457  0.28656865  0.39296171    -0.25800
C391        C  0.97425811  0.26137952  0.38583201     0.36800
C392        C  0.95626867  0.24740236  0.39952091    -0.27500
F393        F  0.93850475  0.29414761  0.44834453    -0.19600
H394        H  0.97108725  0.31677082  0.41964320     0.16100
F395        F  0.98659360  0.24982746  0.36629722    -0.23300
H396        H  0.95244944  0.22791442  0.39394818     0.17900
C397        C  0.93608143  0.28948262  0.63281140    -0.27400
C398        C  0.93477075  0.26286125  0.63453701     0.06300
C399        C  0.94853067  0.25025407  0.65371326     0.25900
C400        C  0.96412169  0.26395341  0.67023978    -0.11800
C401        C  0.96658806  0.29043969  0.66778292    -0.25800
C402        C  0.95198061  0.30324940  0.64922852     0.36700
C403        C  0.92092263  0.24790152  0.61518300     0.06300
F404        F  0.94731682  0.22454681  0.65606166    -0.19600
H405        H  0.97511129  0.25361276  0.68436148     0.16100
F406        F  0.95329755  0.32893286  0.64673764    -0.23300
H407        H  0.92556447  0.29948484  0.61809957     0.17900
C408        C  0.89474998  0.25150827  0.61059604     0.25900
C409        C  0.88206216  0.23616128  0.59284942    -0.11800
C410        C  0.89532013  0.21707057  0.57948654    -0.25800
C411        C  0.92168784  0.21404025  0.58375413     0.36800
C412        C  0.93423806  0.22932409  0.60140513    -0.27500
F413        F  0.88138091  0.26928559  0.62377947    -0.19600
H414        H  0.86178170  0.23897145  0.58982865     0.16100
F415        F  0.93554533  0.19660381  0.57060916    -0.23300
H416        H  0.95456042  0.22665658  0.60436374     0.17900
C417        C  0.10910608  0.28141795  0.63912514    -0.27400
C418        C  0.10864596  0.25477789  0.64058589     0.06300
C419        C  0.09157678  0.24287723  0.65731506     0.25900
C420        C  0.07502781  0.25750095  0.67218435    -0.11800
C421        C  0.07493636  0.28418838  0.67028333    -0.25800
C422        C  0.09225871  0.29606777  0.65364790     0.36700
C423        C  0.12561723  0.23951941  0.62417346     0.06300
F424        F  0.09100132  0.21712071  0.65929837    -0.19600
H425        H  0.06185910  0.24789524  0.68478304     0.16100
F426        F  0.09306977  0.32180664  0.65152148    -0.23300
H427        H  0.12221101  0.29083907  0.62631583     0.17900
C428        C  0.11534862  0.22304577  0.60580133     0.25900
C429        C  0.13149352  0.20893456  0.59005035    -0.11800
C430        C  0.15812592  0.21121180  0.59217593    -0.25800
C431        C  0.16838125  0.22766799  0.61069779     0.36800
C432        C  0.15218281  0.24173735  0.62650071    -0.27500
F433        F  0.08970625  0.22125085  0.60257255    -0.19600
H434        H  0.12313101  0.19667616  0.57572010     0.16100
F435        F  0.19400061  0.22986584  0.61381290    -0.23300
H436        H  0.16034671  0.25430951  0.64067473     0.17900
C437        C  0.45623196  0.10216753  0.25214264    -0.27400
C438        C  0.45137324  0.11128151  0.27669896     0.06300
C439        C  0.46442177  0.13283868  0.28555223     0.25900
C440        C  0.48237774  0.14486245  0.27005615    -0.11800
C441        C  0.48784695  0.13538708  0.24561783    -0.25800
C442        C  0.47434817  0.11393869  0.23671972     0.36700
C443        C  0.43402853  0.09694092  0.29341578     0.06300
F444        F  0.45982931  0.14216597  0.30918215    -0.19600
H445        H  0.49235299  0.16136532  0.27742794     0.16100
F446        F  0.47883078  0.10400337  0.21331539    -0.23300
H447        H  0.44644367  0.08536429  0.24516914     0.17900
C448        C  0.40841845  0.09319169  0.28658530     0.25900
C449        C  0.39307969  0.07680396  0.30080513    -0.11800
C450        C  0.40306845  0.06375015  0.32197232    -0.25800
C451        C  0.42857083  0.06835474  0.32928283     0.36800
C452        C  0.44379256  0.08487708  0.31510899    -0.27500
F453        F  0.39842046  0.10507577  0.26591627    -0.19600
H454        H  0.37348553  0.07388382  0.29483954     0.16100
F455        F  0.43924057  0.05611838  0.34940471    -0.23300
H456        H  0.46363097  0.08743647  0.32044976     0.17900
C457        C  0.46090630  0.21972260  0.13160001    -0.27400
C458        C  0.45975535  0.24569506  0.13770008     0.06300
C459        C  0.47487798  0.25527989  0.15752385     0.25900
C460        C  0.49112373  0.23905391  0.17085206    -0.11800
C461        C  0.49257100  0.21305820  0.16461284    -0.25800
C462        C  0.47720000  0.20346111  0.14486503     0.36700
C463        C  0.44250557  0.26246669  0.12333211     0.06300
F464        F  0.47360704  0.28019470  0.16428809    -0.19600
H465        H  0.50275191  0.24695637  0.18596841     0.16100
F466        F  0.47772183  0.17843444  0.13843481    -0.23300
H467        H  0.44929715  0.21208200  0.11632511     0.17900
C468        C  0.45169584  0.28444310  0.11126705     0.25900
C469        C  0.43534558  0.29914708  0.09632509    -0.11800
C470        C  0.40971622  0.29200896  0.09301425    -0.25800
C471        C  0.40044965  0.27034674  0.10573025     0.36800
C472        C  0.41678643  0.25575282  0.12071474    -0.27500
F473        F  0.47669926  0.29098318  0.11290562    -0.19600
H474        H  0.44301127  0.31562770  0.08662663     0.16100
F475        F  0.37572260  0.26301779  0.10351914    -0.23300
H476        H  0.40941929  0.23895410  0.13011229     0.17900
C477        C  0.28438635  0.37490271  0.11861285    -0.27400
C478        C  0.29449776  0.39650973  0.13055264     0.06300
C479        C  0.32013107  0.40308942  0.12627303     0.25900
C480        C  0.33503704  0.38875043  0.10956743    -0.11800
C481        C  0.32471055  0.36756381  0.09694670    -0.25800
C482        C  0.29925094  0.36052285  0.10194701     0.36700
C483        C  0.27791579  0.41298119  0.14622681     0.06300
F484        F  0.33041590  0.42408209  0.13729585    -0.19600
H485        H  0.35455272  0.39456125  0.10613040     0.16100
F486        F  0.28828785  0.34037855  0.09002593    -0.23300
H487        H  0.26474136  0.36940900  0.12187410     0.17900
C488        C  0.25472517  0.42231175  0.13644808     0.25900
C489        C  0.24036538  0.43980601  0.15038609    -0.11800
C490        C  0.24885055  0.44835177  0.17427029    -0.25800
C491        C  0.27151991  0.43807209  0.18451085     0.36800
C492        C  0.28584909  0.42057101  0.17054252    -0.27500
F493        F  0.24656988  0.41551416  0.11288604    -0.19600
H494        H  0.22295279  0.44724949  0.14206878     0.16100
F495        F  0.28009653  0.44507942  0.20785409    -0.23300
H496        H  0.30342059  0.41317748  0.17858245     0.17900
C497        C  0.16630608  0.43019535  0.29619477    -0.27400
C498        C  0.14907898  0.41356409  0.28427141     0.06300
C499        C  0.14573857  0.41483736  0.25780663     0.25900
C500        C  0.15885508  0.43298423  0.24367296    -0.11800
C501        C  0.17559208  0.45010729  0.25560272    -0.25800
C502        C  0.17965280  0.44825852  0.28198814     0.36700
C503        C  0.13246073  0.39703812  0.29966504     0.06300
F504        F  0.12868001  0.39954734  0.24579648    -0.19600
H505        H  0.15554434  0.43392156  0.22335015     0.16100
F506        F  0.19550025  0.46462420  0.29422122    -0.23300
H507        H  0.16892245  0.42956191  0.31662735     0.17900
C508        C  0.13010254  0.37092052  0.29440714     0.25900
C509        C  0.11179935  0.35639377  0.30709116    -0.11800
C510        C  0.09575528  0.36765675  0.32531702    -0.25800
C511        C  0.09889544  0.39363865  0.33119306     0.36800
C512        C  0.11710795  0.40808840  0.31846042    -0.27500
F513        F  0.14532313  0.35957319  0.27686610    -0.19600
H514        H  0.11001196  0.33637270  0.30246727     0.16100
F515        F  0.08360284  0.40547442  0.34834181    -0.23300
H516        H  0.11851271  0.42826446  0.32255411     0.17900
C517        C  0.24895073  0.57699353  0.12386344    -0.27400
C518        C  0.26980288  0.59084719  0.13303256     0.06300
C519        C  0.27675137  0.58907279  0.15872758     0.25900
C520        C  0.26359840  0.57265986  0.17484344    -0.11800
C521        C  0.24332465  0.55785674  0.16552651    -0.25800
C522        C  0.23576717  0.56053398  0.13990671     0.36700
C523        C  0.28546789  0.60546831  0.11522407     0.06300
F524        F  0.29649913  0.60294312  0.16805854    -0.19600
H525        H  0.26955244  0.57125151  0.19452882     0.16100
F526        F  0.21644290  0.54648574  0.12998145    -0.23300
H527        H  0.24354249  0.57818352  0.10399842     0.17900
C528        C  0.31085941  0.59827129  0.11090128     0.25900
C529        C  0.32555119  0.61151221  0.09334335    -0.11800
C530        C  0.31516873  0.63217640  0.07986699    -0.25800
C531        C  0.28960220  0.63932447  0.08423800     0.36800
C532        C  0.27486243  0.62588022  0.10172469    -0.27500
F533        F  0.32120272  0.57799483  0.12320158    -0.19600
H534        H  0.34510274  0.60552347  0.09031094     0.16100
F535        F  0.27868392  0.65896608  0.07142452    -0.23300
H536        H  0.25516781  0.63138325  0.10479350     0.17900
C537        C  0.12337548  0.41110418  0.82240180    -0.27400
C538        C  0.13234863  0.40058844  0.79957697     0.06300
C539        C  0.15695552  0.40681903  0.79112925     0.25900
C540        C  0.17179114  0.42421305  0.80469778    -0.11800
C541        C  0.16240509  0.43578604  0.82693400    -0.25800
C542        C  0.13818886  0.42854000  0.83602904     0.36700
C543        C  0.11500687  0.38538966  0.78339199     0.06300
F544        F  0.16645498  0.39638720  0.76949458    -0.19600
H545        H  0.19049594  0.42903909  0.79739171     0.16100
F546        F  0.12837088  0.43886293  0.85756392    -0.23300
H547        H  0.10435143  0.40663821  0.82912635     0.17900
C548        C  0.10190646  0.36418715  0.79302411     0.25900
C549        C  0.08400009  0.35148700  0.77788002    -0.11800
C550        C  0.07868154  0.35985930  0.75299492    -0.25800
C551        C  0.09234918  0.38076586  0.74326658     0.36800
C552        C  0.11028707  0.39328890  0.75835775    -0.27500
F553        F  0.10640679  0.35582270  0.81704189    -0.19600
H554        H  0.07390636  0.33537458  0.78586538     0.16100
F555        F  0.08825684  0.38941074  0.71928300    -0.23300
H556        H  0.12004079  0.40976919  0.75067411     0.17900
C557        C  0.28734842  0.57154463  0.90085096    -0.27400
C558        C  0.27911382  0.58121515  0.92425137     0.06300
C559        C  0.25541757  0.57376897  0.93403852     0.25900
C560        C  0.24026525  0.55656578  0.92065969    -0.11800
C561        C  0.24844718  0.54653550  0.89725035    -0.25800
C562        C  0.27213287  0.55443533  0.88729500     0.36700
C563        C  0.29551663  0.59847282  0.93895212     0.06300
F564        F  0.24734814  0.58251913  0.95695860    -0.19600
H565        H  0.22223278  0.55082384  0.92888914     0.16100
F566        F  0.28081207  0.54548981  0.86468781    -0.23300
H567        H  0.30563639  0.57723748  0.89313612     0.17900
C568        C  0.31866855  0.58974261  0.94914212     0.25900
C569        C  0.33276552  0.60533809  0.96538948    -0.11800
C570        C  0.32399313  0.62987612  0.97168288    -0.25800
C571        C  0.30129891  0.63894894  0.96040135     0.36800
C572        C  0.28716776  0.62323091  0.94429958    -0.27500
F573        F  0.32690801  0.56567429  0.94446373    -0.19600
H574        H  0.35013950  0.59781131  0.97372372     0.16100
F575        F  0.29228169  0.66265762  0.96543532    -0.23300
H576        H  0.26935085  0.63017615  0.93637414     0.17900
C577        C  0.25199028  0.41854310  0.94469211    -0.27400
C578        C  0.27557950  0.40953726  0.93599431     0.06300
C579        C  0.28338815  0.41501479  0.91108533     0.25900
C580        C  0.26804336  0.43002882  0.89540289    -0.11800
C581        C  0.24469244  0.43973291  0.90431749    -0.25800
C582        C  0.23661488  0.43350724  0.92908972     0.36700
C583        C  0.29191836  0.39477061  0.95332431     0.06300
F584        F  0.30575918  0.40576609  0.90191471    -0.19600
H585        H  0.27467274  0.43437168  0.87640599     0.16100
F586        F  0.21421760  0.44232576  0.93860787    -0.23300
H587        H  0.24573605  0.41446297  0.96388575     0.17900
C588        C  0.31713091  0.40232732  0.95825198     0.25900
C589        C  0.33190444  0.38889647  0.97576790    -0.11800
C590        C  0.32173972  0.36783723  0.98869837    -0.28200
C591        C  0.29643825  0.36033967  0.98369948     0.36800
C592        C  0.28173402  0.37375760  0.96614679    -0.27500
F593        F  0.32714612  0.42322493  0.94686633    -0.19600
H594        H  0.35126830  0.39514970  0.97935095     0.16100
F595        F  0.28561913  0.34047661  0.99613612    -0.23300
H596        H  0.26223706  0.36784749  0.96265372     0.17900
C597        C  0.44841145  0.77681656  0.13061866    -0.27400
C598        C  0.43864593  0.75357884  0.13924381     0.06300
C599        C  0.44553518  0.74468467  0.16351214     0.25900
C600        C  0.46247278  0.75861561  0.17855474    -0.11800
C601        C  0.47279381  0.78161347  0.16967316    -0.25800
C602        C  0.46522198  0.79081193  0.14561612     0.36700
C603        C  0.42276044  0.73802742  0.12206203     0.06300
F604        F  0.43592763  0.72251457  0.17261340    -0.19600
H605        H  0.46778470  0.75115903  0.19706988     0.16100
F606        F  0.47435119  0.81306974  0.13623796    -0.23300
H607        H  0.44358680  0.78383455  0.11179117     0.17900
C608        C  0.40199559  0.74877749  0.10892738     0.25900
C609        C  0.38856165  0.73435274  0.09111825    -0.11800
C610        C  0.39566087  0.70905432  0.08598541    -0.25800
C611        C  0.41613394  0.69817955  0.09961269     0.36800
C612        C  0.42949486  0.71261574  0.11741981    -0.27500
F613        F  0.39480289  0.77324709  0.11322365    -0.19600
H614        H  0.37286715  0.74323810  0.08093556     0.16100
F615        F  0.42358524  0.67375490  0.09554175    -0.23300
H616        H  0.44572453  0.70410266  0.12709416     0.17900
C617        C  0.44183420  0.87355222  0.28038626    -0.27400
C618        C  0.43682499  0.89780278  0.27031328     0.06300
C619        C  0.44775701  0.90465333  0.24694456     0.25900
C620        C  0.46419494  0.88786991  0.23446515    -0.11800
C621        C  0.47020544  0.86400946  0.24507071    -0.25800
C622        C  0.45826972  0.85671413  0.26791716     0.36700
C623        C  0.42232656  0.91662081  0.28548365     0.06300
F624        F  0.44386880  0.92816491  0.23695106    -0.19600
H625        H  0.47297312  0.89403570  0.21689051     0.16100
F626        F  0.46293180  0.83366914  0.27864944    -0.23300
H627        H  0.43343593  0.86789099  0.29832249     0.17900
C628        C  0.40155029  0.93011214  0.27518401     0.25900
C629        C  0.38895444  0.94856352  0.28974114    -0.11800
C630        C  0.39690026  0.95393522  0.31475495    -0.25800
C631        C  0.41758759  0.94012110  0.32503641     0.36800
C632        C  0.43002670  0.92168119  0.31051955    -0.27500
F633        F  0.39323401  0.92521940  0.25121472    -0.19600
H634        H  0.37304385  0.95874578  0.28134649     0.16100
F635        F  0.42591779  0.94429571  0.34913436    -0.23300
H636        H  0.44609658  0.91158390  0.31874090     0.17900
C637        C  0.82234311  0.08864342  0.44699290    -0.27400
C638        C  0.79955694  0.09722146  0.43588330     0.06300
C639        C  0.79058035  0.12178302  0.44155180     0.25900
C640        C  0.80362407  0.13701130  0.45892621    -0.11800
C641        C  0.82591066  0.12812797  0.47090445    -0.25800
C642        C  0.83552812  0.10391724  0.46430244     0.36700
C643        C  0.78406571  0.07975574  0.42025010     0.06300
F644        F  0.76899630  0.13091800  0.43049193    -0.19600
H645        H  0.79596005  0.15570669  0.46329470     0.16100
F646        F  0.85714610  0.09457210  0.47510709    -0.23300
H647        H  0.82944527  0.06963557  0.44299976     0.17900
C648        C  0.79477643  0.06607064  0.39992628     0.25900
C649        C  0.77987764  0.04880114  0.38622375    -0.11800
C650        C  0.75419465  0.04475885  0.39271348    -0.25800
C651        C  0.74350350  0.05873320  0.41294139     0.36800
C652        C  0.75837255  0.07597106  0.42651077    -0.27500
F653        F  0.81954599  0.06948835  0.39327608    -0.19600
H654        H  0.78861131  0.03825019  0.37077078     0.16100
F655        F  0.71872624  0.05574991  0.41978721    -0.23300
H656        H  0.74987225  0.08608064  0.44239575     0.17900
C657        C  0.61023832  0.89514700  0.25500732    -0.27400
C658        C  0.61883045  0.88633882  0.27866347     0.06300
C659        C  0.60863111  0.86375137  0.28869301     0.25900
C660        C  0.58989589  0.85043168  0.27527795    -0.11800
C661        C  0.58106410  0.85938750  0.25166263    -0.25800
C662        C  0.59165714  0.88185588  0.24153013     0.36700
C663        C  0.63723842  0.90174988  0.29329293     0.06300
F664        F  0.61691599  0.85448795  0.31135188    -0.19600
H665        H  0.58227691  0.83311093  0.28344029     0.16100
F666        F  0.58396606  0.89129663  0.21873582    -0.23300
H667        H  0.61753681  0.91276040  0.24716093     0.17900
C668        C  0.65947386  0.91125720  0.28182729     0.25900
C669        C  0.67540638  0.92779872  0.29520309    -0.11800
C670        C  0.66940746  0.93521701  0.32016159    -0.25800
C671        C  0.64750578  0.92502756  0.33184644     0.36800
C672        C  0.63162374  0.90852144  0.31844499    -0.27500
F673        F  0.66567518  0.90471457  0.25763422    -0.19600
H674        H  0.69215412  0.93525950  0.28575477     0.16100
F675        F  0.64105404  0.93129974  0.35604098    -0.23300
H676        H  0.61439542  0.90166296  0.32749815     0.17900
C677        C  0.62014774  0.11651768  0.27955316    -0.27400
C678        C  0.63005674  0.09433524  0.26862131     0.06300
C679        C  0.62399675  0.08812207  0.24336426     0.25900
C680        C  0.60756125  0.10373416  0.22948084    -0.11800
C681        C  0.59705684  0.12567942  0.24063067    -0.25800
C682        C  0.60382527  0.13215784  0.26575110     0.36700
C683        C  0.64516760  0.07697660  0.28442734     0.06300
F684        F  0.63299127  0.06641161  0.23256803    -0.19600
H685        H  0.60270290  0.09839418  0.21017202     0.16100
F686        F  0.59401770  0.15304687  0.27741698    -0.23300
H687        H  0.62473141  0.12146882  0.29904296     0.17900
C688        C  0.66962280  0.06920189  0.27697759     0.25900
C689        C  0.68341601  0.05239027  0.29218112    -0.11800
C690        C  0.67301145  0.04317668  0.31500559    -0.25800
C691        C  0.64859499  0.05140364  0.32259267     0.36800
C692        C  0.63486983  0.06817346  0.30734434    -0.27500
F693        F  0.68026445  0.07813475  0.25523862    -0.19600
H694        H  0.70223318  0.04652563  0.28599022     0.16100
F695        F  0.63769020  0.04298769  0.34441528    -0.23300
H696        H  0.61594537  0.07404715  0.31324015     0.17900
C697        C  0.24544967  0.09221590  0.62016483    -0.27400
C698        C  0.26739971  0.10220166  0.63166137     0.06300
C699        C  0.27437897  0.12751771  0.62691176     0.25900
C700        C  0.26014146  0.14224556  0.60997865    -0.11800
C701        C  0.23877493  0.13194927  0.59746859    -0.25800
C702        C  0.23117739  0.10687998  0.60320974     0.36700
C703        C  0.28396084  0.08543134  0.64687851     0.06300
F704        F  0.29516314  0.13783020  0.63838720    -0.19600
H705        H  0.26625614  0.16159331  0.60621993     0.16100
F706        F  0.21064668  0.09608573  0.59173767    -0.23300
H707        H  0.23993046  0.07260729  0.62354924     0.17900
C708        C  0.27407704  0.07153596  0.66735950     0.25900
C709        C  0.28954590  0.05423349  0.68030283    -0.11800
C710        C  0.31503723  0.05031992  0.67290296    -0.25800
C711        C  0.32498966  0.06459937  0.65257486     0.36800
C712        C  0.30951565  0.08203285  0.63977516    -0.27500
F713        F  0.24948039  0.07469884  0.67479376    -0.19600
H714        H  0.28135736  0.04356561  0.69592987     0.16100
F715        F  0.34953779  0.06168300  0.64491120    -0.23300
H716        H  0.31732063  0.09246610  0.62378250     0.17900
C717        C  0.28833280  0.91032369  0.66093643    -0.27400
C718        C  0.29657332  0.90634430  0.63585259     0.06300
C719        C  0.31810434  0.91951944  0.62699835     0.25900
C720        C  0.33090142  0.93649954  0.64292808    -0.11800
C721        C  0.32230337  0.94104022  0.66784854    -0.25800
C722        C  0.30096933  0.92751882  0.67682215     0.36700
C723        C  0.28134427  0.89021701  0.61846114     0.06300
F724        F  0.32595018  0.91711581  0.60252541    -0.19600
H725        H  0.34712466  0.94674028  0.63537507     0.16100
F726        F  0.29203222  0.93108498  0.70076478    -0.23300
H727        H  0.27176941  0.90034863  0.66811825     0.17900
C728        C  0.29284907  0.87162079  0.60297284     0.25900
C729        C  0.27824045  0.85815456  0.58523784    -0.11800
C730        C  0.25198281  0.86298072  0.58270590    -0.25800
C731        C  0.24032737  0.88072956  0.59908638     0.36800
C732        C  0.25493263  0.89420758  0.61667711    -0.27500
F733        F  0.31815618  0.86644411  0.60500110    -0.19600
H734        H  0.28760173  0.84434598  0.57310145     0.16100
F735        F  0.21481389  0.88518497  0.59813195    -0.23300
H736        H  0.24564492  0.90832677  0.62851831     0.17900
C737        C  0.28026970  0.87583859  0.44154022    -0.27400
C738        C  0.27359656  0.90152098  0.43844510     0.06300
C739        C  0.25280373  0.91144187  0.45208711     0.25900
C740        C  0.23933175  0.89600209  0.46894768    -0.11800
C741        C  0.24638015  0.87043262  0.47262772    -0.25800
C742        C  0.26685883  0.86036806  0.45844817     0.36700
C743        C  0.28908623  0.91821386  0.42197076     0.06300
F744        F  0.24622216  0.93636105  0.44997219    -0.19600
H745        H  0.22375149  0.90432168  0.47963463     0.16100
F746        F  0.27410891  0.83567194  0.46095603    -0.23300
H747        H  0.29608239  0.86780642  0.43096208     0.17900
C748        C  0.31556373  0.92013425  0.42570424     0.25900
C749        C  0.32980616  0.93744856  0.41151997    -0.11800
C750        C  0.31800244  0.95305406  0.39323438    -0.25800
C751        C  0.29159795  0.95044694  0.38887006     0.36800
C752        C  0.27732673  0.93321796  0.40322477    -0.27500
F753        F  0.32749239  0.90610232  0.44387217    -0.19600
H754        H  0.35010228  0.93893126  0.41518966     0.16100
F755        F  0.27934176  0.96516375  0.37148640    -0.23300
H756        H  0.25695423  0.93181347  0.39994921     0.17900
C757        C  0.15609661  0.75684117  0.44506791    -0.27400
C758        C  0.13130118  0.76602373  0.44089928     0.06300
C759        C  0.12359357  0.78886516  0.45241992     0.25900
C760        C  0.14034456  0.80194993  0.46837769    -0.11800
C761        C  0.16501013  0.79244589  0.47322342    -0.25800
C762        C  0.17290319  0.76990283  0.46099740     0.36700
C763        C  0.11316251  0.75076766  0.42586046     0.06300
F764        F  0.09948135  0.79784339  0.44926947    -0.19600
H765        H  0.13366233  0.81919335  0.47753527     0.16100
F766        F  0.19661299  0.76013855  0.46472526    -0.23300
H767        H  0.16231967  0.73927057  0.43619229     0.17900
C768        C  0.10039484  0.76114666  0.40477603     0.25900
C769        C  0.08333571  0.74623517  0.39083633    -0.11800
C770        C  0.07864689  0.72081646  0.39777809    -0.25800
C771        C  0.09141702  0.71056880  0.41905795     0.36800
C772        C  0.10856894  0.72544736  0.43281918    -0.27500
F773        F  0.10482696  0.78548602  0.39736247    -0.19600
H774        H  0.07377800  0.75464099  0.37458313     0.16100
F775        F  0.08761010  0.68614112  0.42653038    -0.23300
H776        H  0.11818789  0.71723669  0.44914843     0.17900
C777        C  0.11501344  0.63701928  0.28187457    -0.27400
C778        C  0.12386129  0.61368053  0.29146042     0.06300
C779        C  0.11504285  0.60515699  0.31517389     0.25900
C780        C  0.09708115  0.61935514  0.32858960    -0.11800
C781        C  0.08740119  0.64226792  0.31864354    -0.25800
C782        C  0.09692909  0.65125803  0.29528105     0.36700
C783        C  0.14097767  0.59741083  0.27614184     0.06300
F784        F  0.12276772  0.58242364  0.32479567    -0.19600
H785        H  0.09020134  0.61191342  0.34651518     0.16100
F786        F  0.08841731  0.67341730  0.28503378    -0.23300
H787        H  0.12183691  0.64401994  0.26374585     0.17900
C788        C  0.13436075  0.59064530  0.25112600     0.25900
C789        C  0.14895219  0.57279635  0.23787812    -0.11800
C790        C  0.17042833  0.56145821  0.24925649    -0.25800
C791        C  0.17765006  0.56910845  0.27393534     0.36800
C792        C  0.16300292  0.58691875  0.28716598    -0.27500
F793        F  0.11304660  0.60026356  0.23996272    -0.19600
H794        H  0.14309461  0.56746753  0.21883723     0.16100
F795        F  0.19824190  0.55873487  0.28575171    -0.23300
H796        H  0.16854350  0.59212133  0.30634174     0.17900
C797        C  0.95403401  0.62488309  0.27621014    -0.27400
C798        C  0.94510547  0.60210883  0.28688172     0.06300
C799        C  0.95332750  0.59504406  0.31132213     0.25900
C800        C  0.96970583  0.61079213  0.32501752    -0.11800
C801        C  0.97850972  0.63375672  0.31456428    -0.25800
C802        C  0.97061391  0.64062671  0.28985275     0.36700
C803        C  0.92800952  0.58526737  0.27219151     0.06300
F804        F  0.94618935  0.57249126  0.32167364    -0.19600
H805        H  0.97567073  0.60479801  0.34382350     0.16100
F806        F  0.97906924  0.66231091  0.27868533    -0.23300
H807        H  0.94808680  0.63050444  0.25727832     0.17900
C808        C  0.90555012  0.57563955  0.28307721     0.25900
C809        C  0.89076495  0.55796131  0.26986844    -0.11800
C810        C  0.89790705  0.54976771  0.24545564    -0.25800
C811        C  0.91975246  0.56045074  0.23406751     0.36800
C812        C  0.93463798  0.57797282  0.24741855    -0.27500
F813        F  0.89785976  0.58339322  0.30647309    -0.19600
H814        H  0.87381764  0.55049778  0.27893498     0.16100
F815        F  0.92697545  0.55387591  0.21017180    -0.23300
H816        H  0.95177108  0.58536794  0.23863036     0.17900
C817        C  0.93193759  0.41005097  0.24616206    -0.27400
C818        C  0.93017414  0.40855193  0.27271583     0.06300
C819        C  0.91091388  0.42221071  0.28534969     0.25900
C820        C  0.89428849  0.43779741  0.27164193    -0.11800
C821        C  0.89673422  0.44024636  0.24517205    -0.25800
C822        C  0.91542303  0.42578180  0.23242755     0.36700
C823        C  0.94936344  0.39401524  0.28729636     0.06300
F824        F  0.90842249  0.42073119  0.31099831    -0.19600
H825        H  0.88005435  0.44870052  0.28192892     0.16100
F826        F  0.91804365  0.42711530  0.20678808    -0.23300
H827        H  0.94674282  0.39968378  0.23611514     0.17900
C828        C  0.95469226  0.36843318  0.28155673     0.25900
C829        C  0.97297197  0.35509970  0.29564007    -0.11800
C830        C  0.98614936  0.36703929  0.31565484    -0.25800
C831        C  0.98107269  0.39282173  0.32101583     0.36800
C832        C  0.96286007  0.40608682  0.30691835    -0.27500
F833        F  0.94176677  0.35619395  0.26280655    -0.19600
H834        H  0.97649892  0.33524700  0.29114422     0.16100
F835        F  0.99393959  0.40539621  0.33958700    -0.23300
H836        H  0.95941159  0.42601149  0.31119882     0.17900
C837        C  0.77620287  0.37033902  0.11517261    -0.27400
C838        C  0.76496194  0.39247121  0.12511159     0.06300
C839        C  0.74023840  0.39928145  0.11726837     0.25900
C840        C  0.72771668  0.38493345  0.09866704    -0.11800
C841        C  0.73963181  0.36364664  0.08749547    -0.25800
C842        C  0.76374645  0.35599218  0.09659936     0.36700
C843        C  0.78052605  0.40979528  0.14096215     0.06300
F844        F  0.72891758  0.42075705  0.12619103    -0.19600
H845        H  0.70906740  0.39117753  0.09226696     0.16100
F846        F  0.77587579  0.33532129  0.08688817    -0.23300
H847        H  0.79518600  0.36468730  0.12116427     0.17900
C848        C  0.77195901  0.41909627  0.16452139     0.25900
C849        C  0.78728203  0.43574573  0.17866989    -0.11800
C850        C  0.81128479  0.44343991  0.16949503    -0.25800
C851        C  0.81966068  0.43404881  0.14582469     0.36800
C852        C  0.80443303  0.41743106  0.13187203    -0.27500
F853        F  0.74905703  0.41179015  0.17402611    -0.19600
H854        H  0.78028353  0.44269860  0.19675276     0.16100
F855        F  0.84250926  0.44094833  0.13589388    -0.23300
H856        H  0.81123151  0.41072888  0.11360503     0.17900
C857        C  0.63575403  0.27391948  0.10544700    -0.27400
C858        C  0.64344310  0.24842653  0.10770401     0.06300
C859        C  0.66320338  0.23917284  0.09224151     0.25900
C860        C  0.67534508  0.25541656  0.07513506    -0.11800
C861        C  0.66781378  0.28103308  0.07300395    -0.25800
C862        C  0.64774348  0.29013424  0.08827188     0.36700
C863        C  0.63012966  0.23162567  0.12576327     0.06300
F864        F  0.67110563  0.21461463  0.09406063    -0.19600
H865        H  0.69069772  0.24791638  0.06355084     0.16100
F866        F  0.64000069  0.31478315  0.08707010    -0.23300
H867        H  0.62025007  0.28125728  0.11694592     0.17900
C868        C  0.62667962  0.23912052  0.15116042     0.25900
C869        C  0.61135665  0.22471383  0.16728982    -0.11800
C870        C  0.59922113  0.20257765  0.15841049    -0.25800
C871        C  0.60393514  0.19432493  0.13332739     0.36800
C872        C  0.61921080  0.20883754  0.11719673    -0.27500
F873        F  0.63777147  0.26063824  0.16022435    -0.19600
H874        H  0.60841708  0.23135704  0.18657287     0.16100
F875        F  0.59295900  0.17290370  0.12392479    -0.23300
H876        H  0.62162382  0.20281940  0.09763079     0.17900
C877        C  0.42987484  0.08163883  0.75678042    -0.27400
C878        C  0.41999778  0.09005334  0.78002875     0.06300
C879        C  0.39659528  0.08040317  0.78862100     0.25900
C880        C  0.38360746  0.06206737  0.77429675    -0.11800
C881        C  0.39383296  0.05300956  0.75127241    -0.25800
C882        C  0.41708709  0.06326364  0.74252428     0.36700
C883        C  0.43519018  0.10781805  0.79559604     0.06300
F884        F  0.38635753  0.08873850  0.81080756    -0.19600
H885        H  0.36565782  0.05475172  0.78140776     0.16100
F886        F  0.42788009  0.05526715  0.72046954    -0.23300
H887        H  0.44800359  0.08884810  0.74998257     0.17900
C888        C  0.44481959  0.10018087  0.81931987     0.25900
C889        C  0.46221421  0.11558098  0.83230425    -0.11800
C890        C  0.47030601  0.13885727  0.82187913    -0.25800
C891        C  0.45964514  0.14695680  0.79856939     0.36800
C892        C  0.44241058  0.13141692  0.78554870    -0.27500
F893        F  0.43860489  0.07713518  0.82916920    -0.19600
H894        H  0.47000932  0.10880819  0.85019342     0.16100
F895        F  0.46643573  0.16943432  0.78783987    -0.23300
H896        H  0.43512889  0.13751472  0.76719955     0.17900
C897        C  0.61334554  0.25689383  0.89370842    -0.27400
C898        C  0.62600296  0.24666379  0.91488738     0.06300
C899        C  0.62058818  0.22159631  0.92243673     0.25900
C900        C  0.60203992  0.20744815  0.90954455    -0.11800
C901        C  0.58863167  0.21796942  0.88884509    -0.25800
C902        C  0.59496661  0.24272918  0.88065825     0.36700
C903        C  0.64240082  0.26321524  0.93073484     0.06300
F904        F  0.63211257  0.21133490  0.94318972    -0.19600
H905        H  0.59772127  0.18843358  0.91622787     0.16100
F906        F  0.58278405  0.25374788  0.86068613    -0.23300
H907        H  0.61726143  0.27622289  0.88767934     0.17900
C908        C  0.66760051  0.25641607  0.93691003     0.25900
C909        C  0.68171553  0.27129908  0.95397085    -0.11800
C910        C  0.67090223  0.29313538  0.96520145    -0.25800
C911        C  0.64596122  0.30037884  0.95806325     0.36800
C912        C  0.63200842  0.28556305  0.94098659    -0.27500
F913        F  0.67843524  0.23530162  0.92663824    -0.19600
H914        H  0.70088980  0.26531534  0.95890110     0.16100
F915        F  0.63449766  0.32117871  0.96829547    -0.23300
H916        H  0.61257051  0.29105429  0.93648164     0.17900
C917        C  0.43737325  0.28940606  0.95296442    -0.27400
C918        C  0.43022868  0.26426180  0.94764029     0.06300
C919        C  0.40926825  0.25357178  0.96019134     0.25900
C920        C  0.39597473  0.26772100  0.97826476    -0.11800
C921        C  0.40352607  0.29268230  0.98437596    -0.25800
C922        C  0.42425017  0.30355980  0.97127450     0.36700
C923        C  0.44605071  0.24854813  0.93069987     0.06300
F924        F  0.40187005  0.22932969  0.95514668    -0.19600
H925        H  0.38005151  0.25883530  0.98788760     0.16100
F926        F  0.43213390  0.32763184  0.97634401    -0.23300
H927        H  0.45368925  0.29777227  0.94350933     0.17900
C928        C  0.44952078  0.25510857  0.90509435     0.25900
C929        C  0.46576603  0.24060437  0.88977456    -0.11800
C930        C  0.47881354  0.21943408  0.89983594    -0.25800
C931        C  0.47491300  0.21279215  0.92551487     0.36800
C932        C  0.45862801  0.22724160  0.94068067    -0.27500
F933        F  0.43705928  0.27538380  0.89493709    -0.19600
H934        H  0.46821056  0.24602827  0.87005558     0.16100
F935        F  0.48726491  0.19276398  0.93628207    -0.23300
H936        H  0.45624627  0.22213244  0.96050653     0.17900
C937        C  0.92681268  0.78086351  0.44796820    -0.27400
C938        C  0.92004615  0.75552592  0.44304601     0.06300
C939        C  0.90006087  0.74434113  0.45678247     0.25900
C940        C  0.88765895  0.75807676  0.47577161    -0.11800
C941        C  0.89506353  0.78312749  0.48149382    -0.25800
C942        C  0.91447543  0.79463530  0.46702921     0.36700
C943        C  0.93576684  0.74007012  0.42572153     0.06300
F944        F  0.89284379  0.71997662  0.45209294    -0.19600
H945        H  0.87259506  0.74883599  0.48639037     0.16100
F946        F  0.92176013  0.81904039  0.47138793    -0.23300
H947        H  0.94235680  0.78968955  0.43767554     0.17900
C948        C  0.94118409  0.74821617  0.40088972     0.25900
C949        C  0.95832092  0.73445795  0.38585674    -0.11800
C950        C  0.97033657  0.71247851  0.39543016    -0.25800
C951        C  0.96414438  0.70400815  0.42009028     0.36800
C952        C  0.94706925  0.71774415  0.43497692    -0.27500
F953        F  0.93010427  0.76955212  0.39132631    -0.19600
H954        H  0.96259477  0.74133936  0.36692059     0.16100
F955        F  0.97529673  0.68305755  0.43038797    -0.23300
H956        H  0.94338764  0.71141684  0.45424313     0.17900
C957        C  0.78684509  0.90756264  0.40331635    -0.27400
C958        C  0.77859569  0.90281471  0.42818511     0.06300
C959        C  0.75691148  0.91527695  0.43761328     0.25900
C960        C  0.74336501  0.93190963  0.42217027    -0.11800
C961        C  0.75142474  0.93676718  0.39720840    -0.25800
C962        C  0.77339147  0.92445102  0.38782500     0.36700
C963        C  0.79337352  0.88610801  0.44495968     0.06300
F964        F  0.74942315  0.91215064  0.46211520    -0.19600
H965        H  0.72680928  0.94142918  0.43006224     0.16100
F966        F  0.78201759  0.92878778  0.36389588    -0.23300
H967        H  0.80377402  0.89824107  0.39597795     0.17900
C968        C  0.78134110  0.86637659  0.45829577     0.25900
C969        C  0.79465481  0.85302821  0.47692787    -0.11800
C970        C  0.82012758  0.85914186  0.48238260    -0.25800
C971        C  0.83257722  0.87793096  0.46787409     0.36800
C972        C  0.81918617  0.89130151  0.44931853    -0.27500
F973        F  0.75657754  0.86041325  0.45361267    -0.19600
H974        H  0.78481208  0.83833761  0.48750696     0.16100
F975        F  0.85755039  0.88363567  0.47172278    -0.23300
H976        H  0.82870714  0.90639819  0.43900431     0.17900
C977        C  0.95938423  0.74799399  0.66099093    -0.27400
C978        C  0.95426915  0.74007504  0.63605259     0.06300
C979        C  0.96772358  0.71934374  0.62579760     0.25900
C980        C  0.98588704  0.70664065  0.64050777    -0.11800
C981        C  0.99111688  0.71460850  0.66549777    -0.25800
C982        C  0.97765170  0.73548133  0.67563910     0.36700
C983        C  0.93578707  0.75447469  0.62061689     0.06300
F984        F  0.96397319  0.71195975  0.60133106    -0.19600
H985        H  0.99616141  0.69079691  0.63215896     0.16100
F986        F  0.98185675  0.74372550  0.69975120    -0.23300
H987        H  0.94914987  0.76397499  0.66914536     0.17900
C988        C  0.91554349  0.74224752  0.60805574     0.25900
C989        C  0.89850597  0.75640186  0.59328756    -0.11800
C990        C  0.90155184  0.78284261  0.59077094    -0.25800
C991        C  0.92149440  0.79506386  0.60390549     0.36800
C992        C  0.93839050  0.78093691  0.61867621    -0.27500
F993        F  0.91215561  0.71672665  0.61021231    -0.19600
H994        H  0.88333743  0.74657693  0.58329786     0.16100
F995        F  0.92481960  0.82064589  0.60241797    -0.23300
H996        H  0.95386061  0.79064805  0.62832572     0.17900
C997        C  0.12320027  0.71790865  0.62793375    -0.27400
C998        C  0.13415930  0.74046259  0.63700271     0.06300
C999        C  0.12893208  0.74852282  0.66194228     0.25900
C1000       C  0.11224981  0.73458586  0.67718821    -0.11800
C1001       C  0.10057508  0.71241518  0.66781484    -0.25800
C1002       C  0.10663571  0.70391965  0.64311012     0.36700
C1003       C  0.14922510  0.75636894  0.61951591     0.06300
F1004       F  0.13973900  0.76999476  0.67143109    -0.19600
H1005       H  0.10810391  0.74144406  0.69617340     0.16100
F1006       F  0.09578640  0.68272141  0.63305721    -0.23300
H1007       H  0.12668477  0.71160809  0.60861736     0.17900
C1008       C  0.16885884  0.74572393  0.60477139     0.25900
C1009       C  0.18120216  0.76044494  0.58649417    -0.11800
C1010       C  0.17410235  0.78595815  0.58251468    -0.25800
C1011       C  0.15481406  0.79672369  0.59774972     0.36800
C1012       C  0.14253248  0.78198523  0.61602613    -0.27500
F1013       F  0.17600453  0.72107132  0.60797346    -0.19600
H1014       H  0.19606970  0.75169394  0.57515555     0.16100
F1015       F  0.14764830  0.82141462  0.59498639    -0.23300
H1016       H  0.12719525  0.79042148  0.62698621     0.17900
C1017       C  0.13397768  0.61289219  0.75704285    -0.27400
C1018       C  0.12590734  0.60460620  0.78113954     0.06300
C1019       C  0.10275207  0.61398434  0.79106862     0.25900
C1020       C  0.08778391  0.63065776  0.77675802    -0.11800
C1021       C  0.09525328  0.63753854  0.75218453    -0.25800
C1022       C  0.11851506  0.62881340  0.74241926     0.36700
C1023       C  0.14096147  0.58524498  0.79512159     0.06300
F1024       F  0.09378909  0.60592078  0.81387848    -0.19600
H1025       H  0.06966341  0.63711768  0.78430640     0.16100
F1026       F  0.12614056  0.63557619  0.71871554    -0.23300
H1027       H  0.15203754  0.60658712  0.74927629     0.17900
C1028       C  0.15086804  0.56377494  0.78239914     0.25900
C1029       C  0.16433650  0.54523153  0.79582954    -0.11800
C1030       C  0.16741161  0.54731210  0.82218297    -0.25800
C1031       C  0.15760173  0.56864437  0.83499336     0.36800
C1032       C  0.14485739  0.58764412  0.82145792    -0.27500
F1033       F  0.14666677  0.56010719  0.75718604    -0.19600
H1034       H  0.17163019  0.52876177  0.78575833     0.16100
F1035       F  0.16078214  0.57135503  0.86048376    -0.23300
H1036       H  0.13798598  0.60422618  0.83160934     0.17900
C1037       C  0.81111617  0.90306938  0.61387957    -0.27400
C1038       C  0.79034535  0.89229167  0.62663827     0.06300
C1039       C  0.78434357  0.86657097  0.62259601     0.25900
C1040       C  0.79896028  0.85195953  0.60582564    -0.11800
C1041       C  0.81966481  0.86281319  0.59276585    -0.25800
C1042       C  0.82564474  0.88860338  0.59705753     0.36700
C1043       C  0.77435302  0.90863145  0.64290578     0.06300
F1044       F  0.76444323  0.85563074  0.63491085    -0.19600
H1045       H  0.79391854  0.83215243  0.60290834     0.16100
F1046       F  0.84492418  0.90020461  0.58438293    -0.23300
H1047       H  0.81567052  0.92305863  0.61643732     0.17900
C1048       C  0.78540436  0.92313593  0.66245162     0.25900
C1049       C  0.77078463  0.94097752  0.67562670    -0.11800
C1050       C  0.74499646  0.94484537  0.66935516    -0.25800
C1051       C  0.73371113  0.92955326  0.65040634     0.36800
C1052       C  0.74834156  0.91157148  0.63737987    -0.27500
F1053       F  0.81045900  0.92032824  0.66845619    -0.19600
H1054       H  0.77992432  0.95235366  0.69024823     0.16100
F1055       F  0.70869242  0.93216924  0.64417167    -0.23300
H1056       H  0.73957091  0.90058144  0.62223402     0.17900
C1057       C  0.60033721  0.12649215  0.77284061    -0.27400
C1058       C  0.61299575  0.10587701  0.78426018     0.06300
C1059       C  0.60890470  0.10077845  0.81014480     0.25900
C1060       C  0.59229531  0.11598175  0.82423540    -0.11800
C1061       C  0.57945890  0.13658230  0.81286022    -0.25800
C1062       C  0.58370487  0.14176465  0.78693644     0.36700
C1063       C  0.63018366  0.08956017  0.76906736     0.06300
F1064       F  0.62040043  0.08065171  0.82165123    -0.19600
H1065       H  0.58940684  0.11148134  0.84412529     0.16100
F1066       F  0.57152284  0.16123769  0.77503334    -0.23300
H1067       H  0.60339593  0.13079529  0.75292859     0.17900
C1068       C  0.62175546  0.07858897  0.74619387     0.25900
C1069       C  0.63789249  0.06260351  0.73236921    -0.11800
C1070       C  0.66268013  0.05710858  0.74112761    -0.25800
C1071       C  0.67115917  0.06837307  0.76396564     0.36800
C1072       C  0.65502711  0.08448417  0.77767981    -0.27500
F1073       F  0.59757898  0.08252777  0.73771940    -0.19600
H1074       H  0.63067665  0.05402445  0.71505846     0.16100
F1075       F  0.69485980  0.06365258  0.77331473    -0.23300
H1076       H  0.66192336  0.09297131  0.79517333     0.17900
C1077       C  0.75318612  0.07423650  0.62050045    -0.27400
C1078       C  0.77645448  0.08366837  0.62961162     0.06300
C1079       C  0.78432659  0.07777759  0.65442754     0.25900
C1080       C  0.76904528  0.06253538  0.66988647    -0.11800
C1081       C  0.74576318  0.05279656  0.66077519    -0.25800
C1082       C  0.73797686  0.05880943  0.63579770     0.36700
C1083       C  0.79207920  0.10004307  0.61314931     0.06300
F1084       F  0.80656805  0.08711078  0.66381568    -0.19600
H1085       H  0.77557076  0.05823418  0.68896528     0.16100
F1086       F  0.71591256  0.04956256  0.62590515    -0.23300
H1087       H  0.74695267  0.07861729  0.60133105     0.17900
C1088       C  0.81671170  0.09263086  0.60577387     0.25900
C1089       C  0.83079482  0.10794847  0.58924659    -0.11800
C1090       C  0.82054213  0.13090170  0.57985738    -0.25800
C1091       C  0.79592872  0.13838167  0.58772307     0.36800
C1092       C  0.78187295  0.12296144  0.60409176    -0.27500
F1093       F  0.82674568  0.07018626  0.61384443    -0.19600
H1094       H  0.84957579  0.10157851  0.58346277     0.16100
F1095       F  0.78518713  0.16040122  0.57943926    -0.23300
H1096       H  0.76288186  0.12888390  0.60970744     0.17900
C1097       C  0.61430557  0.87606222  0.78375390    -0.27400
C1098       C  0.61895843  0.90120980  0.79132119     0.06300
C1099       C  0.60682300  0.91101334  0.81298110     0.25900
C1100       C  0.59052165  0.89564429  0.82704399    -0.11800
C1101       C  0.58582550  0.87039087  0.81957326    -0.25800
C1102       C  0.59784019  0.86070427  0.79767915     0.36700
C1103       C  0.63554837  0.91742986  0.77581768     0.06300
F1104       F  0.61003753  0.93567025  0.82003880    -0.19600
H1105       H  0.58127475  0.90370598  0.84361253     0.16100
F1106       F  0.59382527  0.83646283  0.78968940    -0.23300
H1107       H  0.62348492  0.86832027  0.76698926     0.17900
C1108       C  0.65585719  0.93090694  0.78685099     0.25900
C1109       C  0.67060813  0.94711356  0.77197608    -0.11800
C1110       C  0.66529560  0.95006756  0.74595377    -0.25800
C1111       C  0.64546798  0.93582949  0.73481222     0.36800
C1112       C  0.63075086  0.91968841  0.74971117    -0.27500
F1113       F  0.66147627  0.92829799  0.81193073    -0.19600
H1114       H  0.68589139  0.95771109  0.78095423     0.16100
F1115       F  0.64019034  0.93747609  0.70958103    -0.23300
H1116       H  0.61521416  0.90927464  0.74093602     0.17900
C1117       C  0.44771179  0.89726754  0.81973573    -0.27400
C1118       C  0.44280022  0.89037875  0.79444260     0.06300
C1119       C  0.45445078  0.86855585  0.78428637     0.25900
C1120       C  0.47161822  0.85450067  0.79896909    -0.11800
C1121       C  0.47755059  0.86207122  0.82393601    -0.25800
C1122       C  0.46488356  0.88328485  0.83444105     0.36700
C1123       C  0.42698865  0.90712107  0.77835839     0.06300
F1124       F  0.44951068  0.86108959  0.76005564    -0.19600
H1125       H  0.48091380  0.83815489  0.79043893     0.16100
F1126       F  0.46951616  0.89100703  0.85865031    -0.23300
H1127       H  0.43894974  0.91413071  0.82783417     0.17900
C1128       C  0.40275878  0.91506741  0.78643840     0.25900
C1129       C  0.38890451  0.93254008  0.77200642    -0.11800
C1130       C  0.39897718  0.94250287  0.74932204    -0.25800
C1131       C  0.42311294  0.93412334  0.74103262     0.36800
C1132       C  0.43691739  0.91658146  0.75549390    -0.27500
F1133       F  0.39251023  0.90593927  0.80829135    -0.19600
H1134       H  0.37032285  0.93847512  0.77883204     0.16100
F1135       F  0.43366660  0.94314963  0.71929268    -0.23300
H1136       H  0.45577058  0.91089816  0.74918269     0.17900
C1137       C  0.46174605  0.77846010  0.94178886    -0.27400
C1138       C  0.45724683  0.75315069  0.93480474     0.06300
C1139       C  0.46859302  0.74313110  0.91286106     0.25900
C1140       C  0.48417013  0.75845942  0.89792775    -0.11800
C1141       C  0.48872039  0.78391481  0.90478304    -0.25800
C1142       C  0.47746255  0.79378370  0.92702328     0.36700
C1143       C  0.43982761  0.73766781  0.95000863     0.06300
F1144       F  0.46404182  0.71876702  0.90554901    -0.19600
H1145       H  0.49266863  0.75035582  0.88099496     0.16100
F1146       F  0.48135104  0.81822667  0.93446077    -0.23300
H1147       H  0.45303463  0.78632510  0.95873936     0.17900
C1148       C  0.44812505  0.71489584  0.96119538     0.25900
C1149       C  0.43128531  0.70055565  0.97576125    -0.11800
C1150       C  0.40601801  0.70881725  0.97943302    -0.25800
C1151       C  0.39779984  0.73166805  0.96800068     0.36800
C1152       C  0.41468148  0.74593924  0.95347299    -0.27500
F1153       F  0.47266649  0.70697655  0.95864923    -0.19600
H1154       H  0.43821695  0.68322329  0.98457060     0.16100
F1155       F  0.37357775  0.74038713  0.97088341    -0.23300
H1156       H  0.40811880  0.76349875  0.94480534     0.17900
C1157       C  0.62262420  0.78863670  0.93700621    -0.27400
C1158       C  0.63029238  0.76424293  0.92941347     0.06300
C1159       C  0.62134050  0.75423184  0.90631561     0.25900
C1160       C  0.60423998  0.76821194  0.89148228    -0.11800
C1161       C  0.59560336  0.79224480  0.89959122    -0.25800
C1162       C  0.60540251  0.80257119  0.92233943     0.36700
C1163       C  0.64552024  0.74855451  0.94697553     0.06300
F1164       F  0.62873991  0.73074762  0.89840418    -0.19600
H1165       H  0.59712449  0.75980232  0.87403522     0.16100
F1166       F  0.59773024  0.82569184  0.93100009    -0.23300
H1167       H  0.62914332  0.79647206  0.95495801     0.17900
C1168       C  0.66851005  0.75763899  0.95723074     0.25900
C1169       C  0.68128923  0.74363675  0.97588642    -0.11800
C1170       C  0.67128000  0.72042745  0.98464061    -0.25800
C1171       C  0.64844114  0.71117883  0.97387305     0.36800
C1172       C  0.63578079  0.72517899  0.95522566    -0.27500
F1173       F  0.67851762  0.78005346  0.94921799    -0.19600
H1174       H  0.69895827  0.75109073  0.98359545     0.16100
F1175       F  0.63794736  0.68889481  0.98162263    -0.23300
H1176       H  0.61783625  0.71811678  0.94774845     0.17900
C1177       C  0.78234041  0.63035716  0.12237178    -0.27400
C1178       C  0.77346571  0.60578509  0.12770096     0.06300
C1179       C  0.75112603  0.59695848  0.11592310     0.25900
C1180       C  0.73816253  0.61238646  0.09867127    -0.11800
C1181       C  0.74726621  0.63683880  0.09279120    -0.25800
C1182       C  0.76942115  0.64583515  0.10505086     0.36700
C1183       C  0.78838978  0.58876784  0.14423143     0.06300
F1184       F  0.74245967  0.57300784  0.12024756    -0.19600
H1185       H  0.72121016  0.60490804  0.08954475     0.16100
F1186       F  0.77885003  0.66937275  0.10017009    -0.23300
H1187       H  0.79950321  0.63743130  0.13144859     0.17900
C1188       C  0.81403517  0.58359629  0.13859885     0.25900
C1189       C  0.82743559  0.56559016  0.15272171    -0.11800
C1190       C  0.81554014  0.55247834  0.17270974    -0.25800
C1191       C  0.79009710  0.55839548  0.17896676     0.36800
C1192       C  0.77665921  0.57638592  0.16471443    -0.27500
F1193       F  0.82575545  0.59502041  0.11864526    -0.19600
H1194       H  0.84705376  0.56155658  0.14763292     0.16100
F1195       F  0.77786835  0.54619290  0.19813275    -0.23300
H1196       H  0.75690774  0.58034593  0.16934885     0.17900
C1197       C  0.60256495  0.73766274  0.16695612    -0.27400
C1198       C  0.61996147  0.75023039  0.15107296     0.06300
C1199       C  0.61941221  0.77692377  0.14959546     0.25900
C1200       C  0.60115258  0.79068064  0.16310261    -0.11800
C1201       C  0.58322801  0.77813453  0.17840622    -0.25800
C1202       C  0.58441328  0.75147171  0.18071104     0.36700
C1203       C  0.63658715  0.73549063  0.13387008     0.06300
F1204       F  0.63548796  0.78961125  0.13387660    -0.19600
H1205       H  0.60068280  0.81121675  0.16114426     0.16100
F1206       F  0.56721190  0.73865493  0.19507580    -0.23300
H1207       H  0.60263679  0.71706346  0.16815008     0.17900
C1208       C  0.66289906  0.74033573  0.13238888     0.25900
C1209       C  0.67759952  0.72858172  0.11359784    -0.11800
C1210       C  0.66634142  0.71161363  0.09623974    -0.25800
C1211       C  0.64018709  0.70595732  0.09852677     0.36800
C1212       C  0.62552519  0.71785567  0.11717093    -0.27500
F1213       F  0.67429447  0.75654008  0.14899408    -0.19600
H1214       H  0.69778967  0.73284680  0.11255732     0.16100
F1215       F  0.62845981  0.68980652  0.08209632    -0.23300
H1216       H  0.60522578  0.71403469  0.11793606     0.17900
C1217       C  0.90877699  0.58923964  0.77917809    -0.27400
C1218       C  0.93267296  0.59665560  0.78859643     0.06300
C1219       C  0.94104562  0.58752714  0.81222862     0.25900
C1220       C  0.92576938  0.57100666  0.82614675    -0.11800
C1221       C  0.90185433  0.56326620  0.81678169    -0.25800
C1222       C  0.89336320  0.57271898  0.79314229     0.36700
C1223       C  0.94955362  0.61280599  0.77326669     0.06300
F1224       F  0.96442269  0.59386656  0.82141488    -0.19600
H1225       H  0.93290031  0.56404485  0.84420636     0.16100
F1226       F  0.87037345  0.56592730  0.78336808    -0.23300
H1227       H  0.90214153  0.59618862  0.76091870     0.17900
C1228       C  0.95772084  0.60456655  0.74926960     0.25900
C1229       C  0.97597275  0.61846810  0.73603808    -0.11800
C1230       C  0.98633875  0.64084244  0.74647294    -0.25800
C1231       C  0.97728709  0.64962299  0.77012202     0.36800
C1232       C  0.95910160  0.63557103  0.78340053    -0.27500
F1233       F  0.94903285  0.58239099  0.73923088    -0.19600
H1234       H  0.98240804  0.61131793  0.71781525     0.16100
F1235       F  0.98645955  0.67127916  0.78082721    -0.23300
H1236       H  0.95280343  0.64216707  0.80188761     0.17900
C1237       C  0.78733287  0.59924481  0.90407808    -0.27400
C1238       C  0.79731131  0.60716769  0.92749966     0.06300
C1239       C  0.82154097  0.59871429  0.93514560     0.25900
C1240       C  0.83510118  0.58163205  0.91997560    -0.11800
C1241       C  0.82468240  0.57266407  0.89699415    -0.25800
C1242       C  0.80089804  0.58226980  0.88879257     0.36700
C1243       C  0.78109321  0.62148908  0.94526658     0.06300
F1244       F  0.83129266  0.60559780  0.95807201    -0.19600
H1245       H  0.85334333  0.57464475  0.92678451     0.16100
F1246       F  0.79016867  0.57454609  0.86658264    -0.23300
H1247       H  0.76858939  0.60561479  0.89803320     0.17900
C1248       C  0.78863105  0.64518930  0.95498615     0.25900
C1249       C  0.77383165  0.65726885  0.97351522    -0.11800
C1250       C  0.75140025  0.64579294  0.98263278    -0.25800
C1251       C  0.74369298  0.62224686  0.97228750     0.36800
C1252       C  0.75842364  0.61035726  0.95375162    -0.27500
F1253       F  0.81026418  0.65654931  0.94657063    -0.19600
H1254       H  0.78009516  0.67547550  0.98090930     0.16100
F1255       F  0.72227064  0.61027896  0.98040128    -0.23300
H1256       H  0.75250711  0.59196091  0.94650113     0.17900
C1257       C  0.77754002  0.44653982  0.91742602    -0.27400
C1258       C  0.79020797  0.43142921  0.93549483     0.06300
C1259       C  0.81686013  0.43315737  0.93782660     0.25900
C1260       C  0.83052300  0.44966827  0.92222233    -0.11800
C1261       C  0.81792264  0.46459985  0.90392050    -0.25800
C1262       C  0.79121019  0.46300341  0.90172441     0.36700
C1263       C  0.77558928  0.41344170  0.95133762     0.06300
F1264       F  0.82964246  0.41916478  0.95544131    -0.19600
H1265       H  0.85107818  0.45062093  0.92435862     0.16100
F1266       F  0.77823553  0.47762851  0.88477988    -0.23300
H1267       H  0.75700024  0.44533894  0.91525586     0.17900
C1268       C  0.75402857  0.42157333  0.96495948     0.25900
C1269       C  0.73990489  0.40414747  0.97915124    -0.11800
C1270       C  0.74713215  0.37838043  0.98019481    -0.25800
C1271       C  0.76895596  0.37036456  0.96677046     0.36800
C1272       C  0.78290911  0.38777063  0.95241654    -0.27500
F1273       F  0.74694657  0.44644947  0.96496468    -0.19600
H1274       H  0.72344745  0.41093835  0.98962081     0.16100
F1275       F  0.77665759  0.34568060  0.96711895    -0.23300
H1276       H  0.79932255  0.38109804  0.94179224     0.17900
C1277       C  0.89570799  0.42278069  0.78780549    -0.27400
C1278       C  0.92041171  0.41559965  0.79514774     0.06300
C1279       C  0.93165267  0.42698258  0.81653937     0.25900
C1280       C  0.91851061  0.44568687  0.83007583    -0.11800
C1281       C  0.89394811  0.45343860  0.82250057    -0.25800
C1282       C  0.88242874  0.44141495  0.80141727     0.36700
C1283       C  0.93529158  0.39783279  0.77933402     0.06300
F1284       F  0.95585284  0.42091040  0.82356619    -0.19600
H1285       H  0.92793387  0.45460413  0.84611821     0.16100
F1286       F  0.85854097  0.44781998  0.79367397    -0.23300
H1287       H  0.88684963  0.41413485  0.77129183     0.17900
C1288       C  0.94522476  0.37521581  0.78956601     0.25900
C1289       C  0.96156452  0.35998946  0.77508109    -0.11800
C1290       C  0.96842102  0.36721942  0.75026679    -0.25800
C1291       C  0.95761890  0.38949703  0.73980041     0.36800
C1292       C  0.94112807  0.40453024  0.75424530    -0.27500
F1293       F  0.93935076  0.36807264  0.81365321    -0.19600
H1294       H  0.96938713  0.34287946  0.78357518     0.16100
F1295       F  0.96324177  0.39708122  0.71579012    -0.23300
H1296       H  0.93358055  0.42195983  0.74613518     0.17900
loop_ 
_geom_bond_atom_site_label_1 
_geom_bond_atom_site_label_2 
_geom_bond_distance 
_geom_bond_site_symmetry_2 
_ccdc_geom_bond_type 
O1           Cu9   1.987       .  S
O1           C11   1.276       .  A
O2           Cu9   1.991       .  S
O2           C12   1.276       .  A
O3           Cu9   2.002       .  S
O3           C13   1.278       .  A
O4           Cu9   2.002       .  S
O4           C14   1.278       .  A
O5          Cu10   1.997       .  S
O5           C14   1.276       .  A
O6          Cu10   2.003       .  S
O6           C13   1.277       .  A
O7          Cu10   2.007       .  S
O7           C12   1.278       .  A
O8          Cu10   2.007       .  S
O8           C11   1.278       .  A
Cu9         Cu10   2.371       .  S
C11        C1221   1.477       .  S
C12        C1261   1.474       .  S
C13        C1281   1.480       .  S
C14        C1241   1.479       .  S
O15         Cu23   2.009       .  S
O15          C25   1.278       .  A
O16         Cu23   2.010       .  S
O16          C26   1.279       .  A
O17         Cu23   2.000       .  S
O17          C27   1.277       .  A
O18         Cu23   2.004       .  S
O18          C28   1.278       .  A
O19         Cu24   1.988       .  S
O19          C28   1.276       .  A
O20         Cu24   1.988       .  S
O20          C27   1.276       .  A
O21         Cu24   1.990       .  S
O21          C26   1.276       .  A
O22         Cu24   1.988       .  S
O22          C25   1.276       .  A
Cu23        Cu24   2.371       .  S
C25        C1250   1.478   1_554  S
C26        C1210   1.476       .  S
C27        C1181   1.475       .  S
C28        C1170   1.477   1_554  S
O29         Cu37   1.992       .  S
O29          C39   1.277       .  A
O30         Cu37   1.992       .  S
O30          C40   1.276       .  A
O31         Cu37   1.998       .  S
O31          C41   1.277       .  A
O32         Cu37   2.001       .  S
O32          C42   1.278       .  A
O33         Cu38   1.994       .  S
O33          C42   1.276       .  A
O34         Cu38   1.994       .  S
O34          C41   1.277       .  A
O35         Cu38   1.983       .  S
O35          C40   1.276       .  A
O36         Cu38   1.982       .  S
O36          C39   1.275       .  A
Cu37        Cu38   2.372       .  S
C39        C1141   1.470       .  S
C40        C1101   1.470       .  S
C41        C1161   1.477       .  S
C42        C1121   1.476       .  S
O43         Cu51   2.001       .  S
O43          C53   1.278       .  A
O44         Cu51   1.996   1_565  S
O44          C54   1.277       .  A
O45         Cu51   2.001   1_565  S
O45          C55   1.278       .  A
O46         Cu51   2.004       .  S
O46          C56   1.277       .  A
O47         Cu52   2.002       .  S
O47          C56   1.278       .  A
O48         Cu52   1.997   1_565  S
O48          C55   1.277       .  A
O49         Cu52   1.984   1_565  S
O49          C54   1.275       .  A
O50         Cu52   1.994       .  S
O50          C53   1.276       .  A
Cu51        Cu52   2.371       .  S
C53        C1081   1.479       .  S
C54        C1110   1.469       .  S
C55        C1050   1.476       .  S
C56        C1070   1.481       .  S
O57         Cu65   1.995       .  S
O57          C67   1.275       .  A
O58         Cu65   1.993       .  S
O58          C68   1.276       .  A
O59         Cu65   2.002       .  S
O59          C69   1.277       .  A
O60         Cu65   2.010       .  S
O60          C70   1.279       .  A
O61         Cu66   1.981       .  S
O61          C70   1.275       .  A
O62         Cu66   1.989       .  S
O62          C69   1.277       .  A
O63         Cu66   1.994       .  S
O63          C68   1.277       .  A
O64         Cu66   1.995       .  S
O64          C67   1.276       .  A
Cu65        Cu66   2.374       .  S
C67        C1021   1.458       .  S
C68         C981   1.473   1_455  S
C69        C1230   1.476   1_455  S
C70        C1001   1.476       .  S
O71         Cu79   1.999       .  S
O71          C81   1.277       .  A
O72         Cu79   1.997       .  S
O72          C82   1.277       .  A
O73         Cu79   1.973       .  S
O73          C83   1.273       .  A
O74         Cu79   1.979       .  S
O74          C84   1.275       .  A
O75         Cu80   2.003       .  S
O75          C84   1.278       .  A
O76         Cu80   1.998       .  S
O76          C83   1.278       .  A
O77         Cu80   1.994       .  S
O77          C82   1.277       .  A
O78         Cu80   2.003       .  S
O78          C81   1.277       .  A
Cu79        Cu80   2.373       .  S
C81        C1041   1.478       .  S
C82         C941   1.474       .  S
C83         C970   1.467       .  S
C84         C990   1.470       .  S
O85         Cu93   1.992       .  S
O85          C95   1.276       .  A
O86         Cu93   1.991       .  S
O86          C96   1.276       .  A
O87         Cu93   2.012       .  S
O87          C97   1.279       .  A
O88         Cu93   2.011       .  S
O88          C98   1.279       .  A
O89         Cu94   2.001       .  S
O89          C98   1.277       .  A
O90         Cu94   2.005       .  S
O90          C97   1.277       .  A
O91         Cu94   2.010       .  S
O91          C96   1.278       .  A
O92         Cu94   2.010       .  S
O92          C95   1.279       .  A
Cu93        Cu94   2.369       .  S
C95         C930   1.479       .  S
C96        C1061   1.479       .  S
C97         C901   1.484       .  S
C98         C890   1.483       .  S
O99        Cu107   2.004       .  S
O99         C109   1.278   1_554  A
O100       Cu107   1.999       .  S
O100        C110   1.277       .  A
O101       Cu107   1.997       .  S
O101        C111   1.277       .  A
O102       Cu107   2.002   1_556  S
O102        C112   1.277       .  A
O103       Cu108   2.014   1_556  S
O103        C112   1.279       .  A
O104       Cu108   2.012       .  S
O104        C111   1.279       .  A
O105       Cu108   1.995       .  S
O105        C110   1.276       .  A
O106       Cu108   1.999       .  S
O106        C109   1.277   1_554  A
Cu107      Cu108   2.370       .  S
C109       C1270   1.478       .  S
C110        C861   1.474       .  S
C111        C841   1.482       .  S
C112        C910   1.485       .  S
O113       Cu121   1.995       .  S
O113        C123   1.276       .  A
O114       Cu121   1.987       .  S
O114        C124   1.276       .  A
O115       Cu121   1.994       .  S
O115        C125   1.276       .  A
O116       Cu121   1.993       .  S
O116        C126   1.277       .  A
O117       Cu122   2.013       .  S
O117        C126   1.279       .  A
O118       Cu122   2.007       .  S
O118        C125   1.279       .  A
O119       Cu122   1.999       .  S
O119        C124   1.277       .  A
O120       Cu122   2.004       .  S
O120        C123   1.278       .  A
Cu121      Cu122   2.371       .  S
C123        C821   1.475       .  S
C124       C1190   1.472       .  S
C125        C810   1.479       .  S
C126        C850   1.482       .  S
O127       Cu135   2.003       .  S
O127        C137   1.277   1_455  A
O128       Cu135   2.002       .  S
O128        C138   1.278       .  A
O129       Cu135   2.010       .  S
O129        C139   1.278       .  A
O130       Cu135   2.009   1_655  S
O130        C140   1.278       .  A
O131       Cu136   1.987       .  S
O131        C140   1.275   1_455  A
O132       Cu136   1.989       .  S
O132        C139   1.276       .  A
O133       Cu136   1.995       .  S
O133        C138   1.277       .  A
O134       Cu136   1.995       .  S
O134        C137   1.277   1_455  A
Cu135      Cu136   2.370       .  S
C137        C801   1.478       .  S
C138        C770   1.477       .  S
C139        C781   1.479       .  S
C140        C950   1.478       .  S
O141       Cu149   2.011       .  S
O141        C151   1.279       .  A
O142       Cu149   2.008       .  S
O142        C152   1.278       .  A
O143       Cu149   1.999       .  S
O143        C153   1.277       .  A
O144       Cu149   1.999       .  S
O144        C154   1.277       .  A
O145       Cu150   1.999       .  S
O145        C154   1.277       .  A
O146       Cu150   2.004       .  S
O146        C153   1.278       .  A
O147       Cu150   1.993       .  S
O147        C152   1.276       .  A
O148       Cu150   1.989       .  S
O148        C151   1.276       .  A
Cu149      Cu150   2.371       .  S
C151        C730   1.476       .  S
C152        C761   1.479       .  S
C153        C741   1.480       .  S
C154       C1010   1.476       .  S
O155       Cu163   2.006   1_545  S
O155        C165   1.278       .  A
O156       Cu163   2.007       .  S
O156        C166   1.278       .  A
O157       Cu163   1.993       .  S
O157        C167   1.276       .  A
O158       Cu163   1.991   1_545  S
O158        C168   1.276       .  A
O159       Cu164   2.016   1_545  S
O159        C168   1.280       .  A
O160       Cu164   2.014       .  S
O160        C167   1.279       .  A
O161       Cu164   1.986       .  S
O161        C166   1.276       .  A
O162       Cu164   1.987   1_545  S
O162        C165   1.276       .  A
Cu163      Cu164   2.370       .  S
C165        C710   1.476       .  S
C166       C1130   1.477       .  S
C167        C721   1.481       .  S
C168        C881   1.482       .  S
O169       Cu177   1.988   1_545  S
O169        C179   1.276       .  A
O170       Cu177   1.988       .  S
O170        C180   1.275       .  A
O171       Cu177   2.006       .  S
O171        C181   1.279       .  A
O172       Cu177   2.006   1_545  S
O172        C182   1.278       .  A
O173       Cu178   1.988   1_545  S
O173        C182   1.276       .  A
O174       Cu178   1.988       .  S
O174        C181   1.275       .  A
O175       Cu178   1.981       .  S
O175        C180   1.276       .  A
O176       Cu178   1.984   1_545  S
O176        C179   1.275       .  A
Cu177      Cu178   2.372       .  S
C179        C690   1.469       .  S
C180        C961   1.468       .  S
C181        C670   1.477       .  S
C182        C650   1.476       .  S
O183       Cu191   1.984       .  S
O183        C193   1.275       .  A
O184       Cu191   1.981       .  S
O184        C194   1.275       .  A
O185       Cu191   1.996       .  S
O185        C195   1.277       .  A
O186       Cu191   1.998       .  S
O186        C196   1.277       .  A
O187       Cu192   2.010       .  S
O187        C196   1.278       .  A
O188       Cu192   2.008       .  S
O188        C195   1.277       .  A
O189       Cu192   2.012       .  S
O189        C194   1.279       .  A
O190       Cu192   2.008       .  S
O190        C193   1.279       .  A
Cu191      Cu192   2.370       .  S
C193        C601   1.477       .  S
C194        C661   1.478       .  S
C195       C1201   1.474       .  S
C196        C621   1.482       .  S
O197       Cu205   1.998       .  S
O197        C207   1.277       .  A
O198       Cu205   2.001       .  S
O198        C208   1.277       .  A
O199       Cu205   2.002       .  S
O199        C209   1.277       .  A
O200       Cu205   2.000       .  S
O200        C210   1.278       .  A
O201       Cu206   2.010       .  S
O201        C210   1.278       .  A
O202       Cu206   2.000       .  S
O202        C209   1.278       .  A
O203       Cu206   1.990       .  S
O203        C208   1.275       .  A
O204       Cu206   1.986       .  S
O204        C207   1.275       .  A
Cu205      Cu206   2.372       .  S
C207        C581   1.474       .  S
C208       C1030   1.464       .  S
C209        C561   1.479       .  S
C210        C541   1.483       .  S
O211       Cu219   1.994       .  S
O211        C221   1.276       .  A
O212       Cu219   1.997       .  S
O212        C222   1.277   1_554  A
O213       Cu219   1.991       .  S
O213        C223   1.276   1_554  A
O214       Cu219   1.991       .  S
O214        C224   1.277       .  A
O215       Cu220   1.992       .  S
O215        C224   1.276       .  A
O216       Cu220   1.988       .  S
O216        C223   1.276   1_554  A
O217       Cu220   2.000   1_556  S
O217        C222   1.277       .  A
O218       Cu220   2.001       .  S
O218        C221   1.278       .  A
Cu219      Cu220   2.371       .  S
C221        C610   1.476       .  S
C222        C570   1.478       .  S
C223       C1150   1.472       .  S
C224        C530   1.473       .  S
O225       Cu233   2.005       .  S
O225        C235   1.279       .  A
O226       Cu233   2.006       .  S
O226        C236   1.278       .  A
O227       Cu233   1.998       .  S
O227        C237   1.277       .  A
O228       Cu233   1.995       .  S
O228        C238   1.276       .  A
O229       Cu234   2.008       .  S
O229        C238   1.279       .  A
O230       Cu234   2.004       .  S
O230        C237   1.278       .  A
O231       Cu234   1.989       .  S
O231        C236   1.276       .  A
O232       Cu234   1.987       .  S
O232        C235   1.275       .  A
Cu233      Cu234   2.372       .  S
C235        C521   1.474       .  S
C236        C501   1.473       .  S
C237        C490   1.479       .  S
C238        C790   1.478       .  S
O239       Cu247   2.013       .  S
O239        C249   1.279       .  A
O240       Cu247   2.011       .  S
O240        C250   1.279       .  A
O241       Cu247   1.993       .  S
O241        C251   1.277       .  A
O242       Cu247   1.995       .  S
O242        C252   1.277       .  A
O243       Cu248   1.991       .  S
O243        C252   1.276       .  A
O244       Cu248   1.990       .  S
O244        C251   1.276       .  A
O245       Cu248   1.990       .  S
O245        C250   1.276       .  A
O246       Cu248   1.988       .  S
O246        C249   1.275       .  A
Cu247      Cu248   2.371       .  S
C249        C481   1.478       .  S
C250        C921   1.479   1_554  S
C251        C590   1.472   1_554  S
C252        C470   1.472       .  S
O253       Cu261   1.998       .  S
O253        C263   1.277       .  A
O254       Cu261   2.002       .  S
O254        C264   1.277       .  A
O255       Cu261   1.999       .  S
O255        C265   1.277       .  A
O256       Cu261   1.999       .  S
O256        C266   1.277       .  A
O257       Cu262   1.977       .  S
O257        C266   1.274       .  A
O258       Cu262   1.981       .  S
O258        C265   1.275       .  A
O259       Cu262   2.008       .  S
O259        C264   1.278       .  A
O260       Cu262   2.001       .  S
O260        C263   1.278       .  A
Cu261      Cu262   2.371       .  S
C263        C870   1.478       .  S
C264        C441   1.482       .  S
C265        C461   1.471       .  S
C266        C681   1.469       .  S
O267       Cu275   2.010       .  S
O267        C277   1.279       .  A
O268       Cu275   2.009   1_655  S
O268        C278   1.279       .  A
O269       Cu275   2.001   1_655  S
O269        C279   1.278       .  A
O270       Cu275   2.008       .  S
O270        C280   1.278       .  A
O271       Cu276   2.005       .  S
O271        C280   1.278       .  A
O272       Cu276   2.008   1_655  S
O272        C279   1.277       .  A
O273       Cu276   1.998   1_655  S
O273        C278   1.277       .  A
O274       Cu276   2.004       .  S
O274        C277   1.277       .  A
Cu275      Cu276   2.371       .  S
C277        C421   1.478       .  S
C278       C1290   1.480       .  S
C279        C401   1.477       .  S
C280        C550   1.483       .  S
O281       Cu289   1.997       .  S
O281        C291   1.277       .  A
O282       Cu289   1.996       .  S
O282        C292   1.276       .  A
O283       Cu289   1.999       .  S
O283        C293   1.277       .  A
O284       Cu289   2.005       .  S
O284        C294   1.278       .  A
O285       Cu290   2.005       .  S
O285        C294   1.278       .  A
O286       Cu290   2.005       .  S
O286        C293   1.278       .  A
O287       Cu290   2.002       .  S
O287        C292   1.278       .  A
O288       Cu290   2.008       .  S
O288        C291   1.278       .  A
Cu289      Cu290   2.369       .  S
C291        C410   1.478       .  S
C292        C641   1.478       .  S
C293        C381   1.481       .  S
C294       C1090   1.482       .  S
O295       Cu303   1.993       .  S
O295        C305   1.277       .  A
O296       Cu303   1.999       .  S
O296        C306   1.277       .  A
O297       Cu303   2.008       .  S
O297        C307   1.278       .  A
O298       Cu303   2.007       .  S
O298        C308   1.278       .  A
O299       Cu304   2.013       .  S
O299        C308   1.279       .  A
O300       Cu304   2.009       .  S
O300        C307   1.278       .  A
O301       Cu304   1.995       .  S
O301        C306   1.277       .  A
O302       Cu304   2.000       .  S
O302        C305   1.277       .  A
Cu303      Cu304   2.371       .  S
C305        C341   1.474       .  S
C306        C701   1.477       .  S
C307        C430   1.478       .  S
C308        C361   1.485       .  S
O309       Cu317   2.014       .  S
O309        C319   1.279       .  A
O310       Cu317   2.017   1_565  S
O310        C320   1.279       .  A
O311       Cu317   2.010   1_565  S
O311        C321   1.278       .  A
O312       Cu317   2.009       .  S
O312        C322   1.279       .  A
O313       Cu318   2.004       .  S
O313        C322   1.277       .  A
O314       Cu318   2.000   1_565  S
O314        C321   1.278       .  A
O315       Cu318   1.999   1_565  S
O315        C320   1.277       .  A
O316       Cu318   2.003       .  S
O316        C319   1.277       .  A
Cu317      Cu318   2.369       .  S
C319        C370   1.484       .  S
C320        C630   1.484       .  S
C321        C750   1.479       .  S
C322        C450   1.483       .  S
O323       Cu331   2.010       .  S
O323        C333   1.279       .  A
O324       Cu331   2.011       .  S
O324        C334   1.279       .  A
O325       Cu331   2.005       .  S
O325        C335   1.278       .  A
O326       Cu331   2.000       .  S
O326        C336   1.277       .  A
O327       Cu332   1.997       .  S
O327        C336   1.277       .  A
O328       Cu332   1.995       .  S
O328        C335   1.277       .  A
O329       Cu332   1.998       .  S
O329        C334   1.277       .  A
O330       Cu332   1.994       .  S
O330        C333   1.276       .  A
Cu331      Cu332   2.371       .  S
C333        C510   1.477       .  S
C334        C390   1.482   1_455  S
C335        C830   1.476   1_455  S
C336        C350   1.476       .  S
C337        C338   1.402       .  A
C337        C342   1.395       .  A
C337        H347   1.084       .  S
C338        C343   1.474       .  S
C338        C339   1.404       .  A
C339        C340   1.394       .  A
C339        F344   1.358       .  S
C340        C341   1.405       .  A
C340        H345   1.084       .  S
C341        C342   1.408       .  A
C342        F346   1.357       .  S
C343        C348   1.404       .  A
C343        C352   1.402       .  A
C348        C349   1.393       .  A
C348        F353   1.358       .  S
C349        C350   1.405       .  A
C349        H354   1.084       .  S
C350        C351   1.409       .  A
C351        C352   1.396       .  A
C351        F355   1.357       .  S
C352        H356   1.084       .  S
C357        C358   1.402       .  A
C357        C362   1.399       .  A
C357        H367   1.083       .  S
C358        C363   1.479       .  S
C358        C359   1.404       .  A
C359        C360   1.398       .  A
C359        F364   1.358       .  S
C360        C361   1.407       .  A
C360        H365   1.083       .  S
C361        C362   1.411       .  A
C362        F366   1.357       .  S
C363        C368   1.405       .  A
C363        C372   1.401       .  A
C368        C369   1.399       .  A
C368        F373   1.357       .  S
C369        C370   1.407       .  A
C369        H374   1.083       .  S
C370        C371   1.411       .  A
C371        C372   1.397       .  A
C371        F375   1.357       .  S
C372        H376   1.084       .  S
C377        C378   1.404       .  A
C377        C382   1.394       .  A
C377        H387   1.084       .  S
C378        C383   1.483       .  S
C378        C379   1.407       .  A
C379        C380   1.398       .  A
C379        F384   1.357       .  S
C380        C381   1.407       .  A
C380        H385   1.083       .  S
C381        C382   1.409       .  A
C382        F386   1.357       .  S
C383        C388   1.407       .  A
C383        C392   1.405       .  A
C388        C389   1.396       .  A
C388        F393   1.357       .  S
C389        C390   1.406       .  A
C389        H394   1.083       .  S
C390        C391   1.409       .  A
C391        C392   1.397       .  A
C391        F395   1.357       .  S
C392        H396   1.084       .  S
C397        C398   1.403       .  A
C397        C402   1.400       .  A
C397        H407   1.084       .  S
C398        C403   1.476       .  S
C398        C399   1.404       .  A
C399        C400   1.393       .  A
C399        F404   1.358       .  S
C400        C401   1.404       .  A
C400        H405   1.084       .  S
C401        C402   1.409       .  A
C402        F406   1.357       .  S
C403        C408   1.405       .  A
C403        C412   1.401       .  A
C408        C409   1.401       .  A
C408        F413   1.357       .  S
C409        C410   1.407       .  A
C409        H414   1.084       .  S
C410        C411   1.408       .  A
C411        C412   1.392       .  A
C411        F415   1.358       .  S
C412        H416   1.085       .  S
C417        C418   1.402       .  A
C417        C422   1.398       .  A
C417        H427   1.084       .  S
C418        C423   1.476       .  S
C418        C419   1.404       .  A
C419        C420   1.398       .  A
C419        F424   1.357       .  S
C420        C421   1.405       .  A
C420        H425   1.083       .  S
C421        C422   1.409       .  A
C422        F426   1.357       .  S
C423        C428   1.404       .  A
C423        C432   1.402       .  A
C428        C429   1.397       .  A
C428        F433   1.358       .  S
C429        C430   1.405       .  A
C429        H434   1.083       .  S
C430        C431   1.408       .  A
C431        C432   1.399       .  A
C431        F435   1.357       .  S
C432        H436   1.084       .  S
C437        C438   1.401       .  A
C437        C442   1.396       .  A
C437        H447   1.085       .  S
C438        C443   1.474       .  S
C438        C439   1.403       .  A
C439        C440   1.398       .  A
C439        F444   1.357       .  S
C440        C441   1.408       .  A
C440        H445   1.084       .  S
C441        C442   1.411       .  A
C442        F446   1.357       .  S
C443        C448   1.403       .  A
C443        C452   1.401       .  A
C448        C449   1.397       .  A
C448        F453   1.357       .  S
C449        C450   1.407       .  A
C449        H454   1.084       .  S
C450        C451   1.411       .  A
C451        C452   1.397       .  A
C451        F455   1.357       .  S
C452        H456   1.085       .  S
C457        C458   1.403       .  A
C457        C462   1.393       .  A
C457        H467   1.084       .  S
C458        C463   1.469       .  S
C458        C459   1.402       .  A
C459        C460   1.392       .  A
C459        F464   1.358       .  S
C460        C461   1.406       .  A
C460        H465   1.084       .  S
C461        C462   1.407       .  A
C462        F466   1.357       .  S
C463        C468   1.404       .  A
C463        C472   1.400       .  A
C468        C469   1.394       .  A
C468        F473   1.358       .  S
C469        C470   1.406       .  A
C469        H474   1.083       .  S
C470        C471   1.408       .  A
C471        C472   1.392       .  A
C471        F475   1.357       .  S
C472        H476   1.084       .  S
C477        C478   1.401       .  A
C477        C482   1.395       .  A
C477        H487   1.084       .  S
C478        C483   1.477       .  S
C478        C479   1.406       .  A
C479        C480   1.396       .  A
C479        F484   1.358       .  S
C480        C481   1.404       .  A
C480        H485   1.084       .  S
C481        C482   1.411       .  A
C482        F486   1.358       .  S
C483        C488   1.406       .  A
C483        C492   1.402       .  A
C488        C489   1.395       .  A
C488        F493   1.358       .  S
C489        C490   1.405       .  A
C489        H494   1.083       .  S
C490        C491   1.410       .  A
C491        C492   1.396       .  A
C491        F495   1.357       .  S
C492        H496   1.084       .  S
C497        C498   1.404       .  A
C497        C502   1.398       .  A
C497        H507   1.083       .  S
C498        C503   1.475       .  S
C498        C499   1.404       .  A
C499        C500   1.393       .  A
C499        F504   1.358       .  S
C500        C501   1.404       .  A
C500        H505   1.084       .  S
C501        C502   1.407       .  A
C502        F506   1.357       .  S
C503        C508   1.405       .  A
C503        C512   1.401       .  A
C508        C509   1.398       .  A
C508        F513   1.358       .  S
C509        C510   1.406       .  A
C509        H514   1.084       .  S
C510        C511   1.409       .  A
C511        C512   1.393       .  A
C511        F515   1.357       .  S
C512        H516   1.084       .  S
C517        C518   1.399       .  A
C517        C522   1.394       .  A
C517        H527   1.084       .  S
C518        C523   1.465       .  S
C518        C519   1.402       .  A
C519        C520   1.394       .  A
C519        F524   1.358       .  S
C520        C521   1.405       .  A
C520        H525   1.083       .  S
C521        C522   1.411       .  A
C522        F526   1.358       .  S
C523        C528   1.402       .  A
C523        C532   1.400       .  A
C528        C529   1.391       .  A
C528        F533   1.358       .  S
C529        C530   1.405       .  A
C529        H534   1.083       .  S
C530        C531   1.410       .  A
C531        C532   1.395       .  A
C531        F535   1.357       .  S
C532        H536   1.084       .  S
C537        C538   1.403       .  A
C537        C542   1.398       .  A
C537        H547   1.085       .  S
C538        C543   1.479       .  S
C538        C539   1.404       .  A
C539        C540   1.396       .  A
C539        F544   1.358       .  S
C540        C541   1.407       .  A
C540        H545   1.084       .  S
C541        C542   1.410       .  A
C542        F546   1.357       .  S
C543        C548   1.405       .  A
C543        C552   1.402       .  A
C548        C549   1.400       .  A
C548        F553   1.358       .  S
C549        C550   1.408       .  A
C549        H554   1.084       .  S
C550        C551   1.409       .  A
C551        C552   1.395       .  A
C551        F555   1.357       .  S
C552        H556   1.085       .  S
C557        C558   1.400       .  A
C557        C562   1.397       .  A
C557        H567   1.084       .  S
C558        C563   1.469       .  S
C558        C559   1.402       .  A
C559        C560   1.394       .  A
C559        F564   1.358       .  S
C560        C561   1.406       .  A
C560        H565   1.084       .  S
C561        C562   1.411       .  A
C562        F566   1.357       .  S
C563        C568   1.402       .  A
C563        C572   1.400       .  A
C568        C569   1.395       .  A
C568        F573   1.358       .  S
C569        C570   1.407       .  A
C569        H574   1.084       .  S
C570        C571   1.410       .  A
C571        C572   1.395       .  A
C571        F575   1.357       .  S
C572        H576   1.084       .  S
C577        C578   1.400       .  A
C577        C582   1.391       .  A
C577        H587   1.084       .  S
C578        C583   1.470       .  S
C578        C579   1.403       .  A
C579        C580   1.394       .  A
C579        F584   1.358       .  S
C580        C581   1.406       .  A
C580        H585   1.083       .  S
C581        C582   1.410       .  A
C582        F586   1.358       .  S
C583        C588   1.404       .  A
C583        C592   1.401       .  A
C588        C589   1.393       .  A
C588        F593   1.358       .  S
C589        C590   1.405       .  A
C589        H594   1.083       .  S
C590        C591   1.408       .  A
C591        C592   1.392       .  A
C591        F595   1.357       .  S
C592        H596   1.084       .  S
C597        C598   1.401       .  A
C597        C602   1.392       .  A
C597        H607   1.086       .  S
C598        C603   1.475       .  S
C598        C599   1.406       .  A
C599        C600   1.396       .  A
C599        F604   1.358       .  S
C600        C601   1.405       .  A
C600        H605   1.085       .  S
C601        C602   1.410       .  A
C602        F606   1.358       .  S
C603        C608   1.405       .  A
C603        C612   1.401       .  A
C608        C609   1.395       .  A
C608        F613   1.358       .  S
C609        C610   1.405       .  A
C609        H614   1.085       .  S
C610        C611   1.409       .  A
C611        C612   1.393       .  A
C611        F615   1.357       .  S
C612        H616   1.086       .  S
C617        C618   1.404       .  A
C617        C622   1.397       .  A
C617        H627   1.084       .  S
C618        C623   1.480       .  S
C618        C619   1.404       .  A
C619        C620   1.396       .  A
C619        F624   1.357       .  S
C620        C621   1.407       .  A
C620        H625   1.083       .  S
C621        C622   1.409       .  A
C622        F626   1.357       .  S
C623        C628   1.406       .  A
C623        C632   1.402       .  A
C628        C629   1.400       .  A
C628        F633   1.357       .  S
C629        C630   1.408       .  A
C629        H634   1.083       .  S
C630        C631   1.410       .  A
C631        C632   1.395       .  A
C631        F635   1.357       .  S
C632        H636   1.084       .  S
C637        C638   1.402       .  A
C637        C642   1.396       .  A
C637        H647   1.085       .  S
C638        C643   1.475       .  S
C638        C639   1.404       .  A
C639        C640   1.393       .  A
C639        F644   1.358       .  S
C640        C641   1.405       .  A
C640        H645   1.085       .  S
C641        C642   1.411       .  A
C642        F646   1.357       .  S
C643        C648   1.405       .  A
C643        C652   1.401       .  A
C648        C649   1.397       .  A
C648        F653   1.357       .  S
C649        C650   1.406       .  A
C649        H654   1.085       .  S
C650        C651   1.409       .  A
C651        C652   1.391       .  A
C651        F655   1.358       .  S
C652        H656   1.086       .  S
C657        C658   1.401       .  A
C657        C662   1.392       .  A
C657        H667   1.084       .  S
C658        C663   1.476       .  S
C658        C659   1.406       .  A
C659        C660   1.397       .  A
C659        F664   1.358       .  S
C660        C661   1.405       .  A
C660        H665   1.084       .  S
C661        C662   1.411       .  A
C662        F666   1.358       .  S
C663        C668   1.406       .  A
C663        C672   1.401       .  A
C668        C669   1.395       .  A
C668        F673   1.358       .  S
C669        C670   1.405       .  A
C669        H674   1.084       .  S
C670        C671   1.410       .  A
C671        C672   1.393       .  A
C671        F675   1.357       .  S
C672        H676   1.084       .  S
C677        C678   1.399       .  A
C677        C682   1.389       .  A
C677        H687   1.084       .  S
C678        C683   1.464       .  S
C678        C679   1.403       .  A
C679        C680   1.394       .  A
C679        F684   1.358       .  S
C680        C681   1.405       .  A
C680        H685   1.083       .  S
C681        C682   1.409       .  A
C682        F686   1.358       .  S
C683        C688   1.401       .  A
C683        C692   1.401       .  A
C688        C689   1.392       .  A
C688        F693   1.357       .  S
C689        C690   1.406       .  A
C689        H694   1.083       .  S
C690        C691   1.408       .  A
C691        C692   1.390       .  A
C691        F695   1.358       .  S
C692        H696   1.084       .  S
C697        C698   1.401       .  A
C697        C702   1.394       .  A
C697        H707   1.085       .  S
C698        C703   1.471       .  S
C698        C699   1.403       .  A
C699        C700   1.394       .  A
C699        F704   1.358       .  S
C700        C701   1.406       .  A
C700        H705   1.085       .  S
C701        C702   1.410       .  A
C702        F706   1.357       .  S
C703        C708   1.402       .  A
C703        C712   1.402       .  A
C708        C709   1.394       .  A
C708        F713   1.358       .  S
C709        C710   1.407       .  A
C709        H714   1.085       .  S
C710        C711   1.408       .  A
C711        C712   1.395       .  A
C711        F715   1.357       .  S
C712        H716   1.085       .  S
C717        C718   1.404       .  A
C717        C722   1.397       .  A
C717        H727   1.084       .  S
C718        C723   1.480       .  S
C718        C719   1.405       .  A
C719        C720   1.395       .  A
C719        F724   1.358       .  S
C720        C721   1.407       .  A
C720        H725   1.083       .  S
C721        C722   1.408       .  A
C722        F726   1.357       .  S
C723        C728   1.407       .  A
C723        C732   1.402       .  A
C728        C729   1.398       .  A
C728        F733   1.357       .  S
C729        C730   1.405       .  A
C729        H734   1.083       .  S
C730        C731   1.408       .  A
C731        C732   1.393       .  A
C731        F735   1.358       .  S
C732        H736   1.084       .  S
C737        C738   1.402       .  A
C737        C742   1.397       .  A
C737        H747   1.084       .  S
C738        C743   1.478       .  S
C738        C739   1.405       .  A
C739        C740   1.396       .  A
C739        F744   1.358       .  S
C740        C741   1.406       .  A
C740        H745   1.083       .  S
C741        C742   1.410       .  A
C742        F746   1.357       .  S
C743        C748   1.405       .  A
C743        C752   1.403       .  A
C748        C749   1.395       .  A
C748        F753   1.358       .  S
C749        C750   1.406       .  A
C749        H754   1.084       .  S
C750        C751   1.409       .  A
C751        C752   1.398       .  A
C751        F755   1.357       .  S
C752        H756   1.084       .  S
C757        C758   1.402       .  A
C757        C762   1.395       .  A
C757        H767   1.084       .  S
C758        C763   1.473       .  S
C758        C759   1.403       .  A
C759        C760   1.395       .  A
C759        F764   1.358       .  S
C760        C761   1.408       .  A
C760        H765   1.084       .  S
C761        C762   1.409       .  A
C762        F766   1.357       .  S
C763        C768   1.404       .  A
C763        C772   1.401       .  A
C768        C769   1.396       .  A
C768        F773   1.357       .  S
C769        C770   1.407       .  A
C769        H774   1.084       .  S
C770        C771   1.409       .  A
C771        C772   1.394       .  A
C771        F775   1.357       .  S
C772        H776   1.084       .  S
C777        C778   1.403       .  A
C777        C782   1.398       .  A
C777        H787   1.084       .  S
C778        C783   1.478       .  S
C778        C779   1.405       .  A
C779        C780   1.393       .  A
C779        F784   1.358       .  S
C780        C781   1.406       .  A
C780        H785   1.083       .  S
C781        C782   1.409       .  A
C782        F786   1.357       .  S
C783        C788   1.405       .  A
C783        C792   1.403       .  A
C788        C789   1.396       .  A
C788        F793   1.358       .  S
C789        C790   1.405       .  A
C789        H794   1.084       .  S
C790        C791   1.410       .  A
C791        C792   1.395       .  A
C791        F795   1.357       .  S
C792        H796   1.084       .  S
C797        C798   1.403       .  A
C797        C802   1.398       .  A
C797        H807   1.084       .  S
C798        C803   1.477       .  S
C798        C799   1.405       .  A
C799        C800   1.393       .  A
C799        F804   1.358       .  S
C800        C801   1.405       .  A
C800        H805   1.083       .  S
C801        C802   1.410       .  A
C802        F806   1.357       .  S
C803        C808   1.405       .  A
C803        C812   1.402       .  A
C808        C809   1.395       .  A
C808        F813   1.358       .  S
C809        C810   1.405       .  A
C809        H814   1.083       .  S
C810        C811   1.411       .  A
C811        C812   1.396       .  A
C811        F815   1.358       .  S
C812        H816   1.084       .  S
C817        C818   1.402       .  A
C817        C822   1.396       .  A
C817        H827   1.085       .  S
C818        C823   1.475       .  S
C818        C819   1.405       .  A
C819        C820   1.394       .  A
C819        F824   1.358       .  S
C820        C821   1.404       .  A
C820        H825   1.085       .  S
C821        C822   1.409       .  A
C822        F826   1.357       .  S
C823        C828   1.405       .  A
C823        C832   1.402       .  A
C828        C829   1.397       .  A
C828        F833   1.357       .  S
C829        C830   1.406       .  A
C829        H834   1.085       .  S
C830        C831   1.408       .  A
C831        C832   1.393       .  A
C831        F835   1.358       .  S
C832        H836   1.085       .  S
C837        C838   1.403       .  A
C837        C842   1.395       .  A
C837        H847   1.084       .  S
C838        C843   1.479       .  S
C838        C839   1.405       .  A
C839        C840   1.398       .  A
C839        F844   1.357       .  S
C840        C841   1.408       .  A
C840        H845   1.083       .  S
C841        C842   1.408       .  A
C842        F846   1.357       .  S
C843        C848   1.406       .  A
C843        C852   1.401       .  A
C848        C849   1.401       .  A
C848        F853   1.357       .  S
C849        C850   1.408       .  A
C849        H854   1.083       .  S
C850        C851   1.409       .  A
C851        C852   1.392       .  A
C851        F855   1.357       .  S
C852        H856   1.084       .  S
C857        C858   1.403       .  A
C857        C862   1.393       .  A
C857        H867   1.084       .  S
C858        C863   1.474       .  S
C858        C859   1.404       .  A
C859        C860   1.396       .  A
C859        F864   1.357       .  S
C860        C861   1.406       .  A
C860        H865   1.084       .  S
C861        C862   1.407       .  A
C862        F866   1.358       .  S
C863        C868   1.404       .  A
C863        C872   1.402       .  A
C868        C869   1.394       .  A
C868        F873   1.358       .  S
C869        C870   1.406       .  A
C869        H874   1.083       .  S
C870        C871   1.410       .  A
C871        C872   1.396       .  A
C871        F875   1.357       .  S
C872        H876   1.084       .  S
C877        C878   1.400       .  A
C877        C882   1.394       .  A
C877        H887   1.085       .  S
C878        C883   1.475       .  S
C878        C879   1.404       .  A
C879        C880   1.399       .  A
C879        F884   1.357       .  S
C880        C881   1.407       .  A
C880        H885   1.084       .  S
C881        C882   1.411       .  A
C882        F886   1.358       .  S
C883        C888   1.403       .  A
C883        C892   1.401       .  A
C888        C889   1.397       .  A
C888        F893   1.358       .  S
C889        C890   1.407       .  A
C889        H894   1.085       .  S
C890        C891   1.412       .  A
C891        C892   1.397       .  A
C891        F895   1.357       .  S
C892        H896   1.085       .  S
C897        C898   1.402       .  A
C897        C902   1.397       .  A
C897        H907   1.084       .  S
C898        C903   1.479       .  S
C898        C899   1.405       .  A
C899        C900   1.399       .  A
C899        F904   1.358       .  S
C900        C901   1.407       .  A
C900        H905   1.084       .  S
C901        C902   1.411       .  A
C902        F906   1.357       .  S
C903        C908   1.405       .  A
C903        C912   1.401       .  A
C908        C909   1.401       .  A
C908        F913   1.357       .  S
C909        C910   1.408       .  A
C909        H914   1.083       .  S
C910        C911   1.411       .  A
C911        C912   1.395       .  A
C911        F915   1.357       .  S
C912        H916   1.084       .  S
C917        C918   1.402       .  A
C917        C922   1.397       .  A
C917        H927   1.084       .  S
C918        C923   1.470       .  S
C918        C919   1.401       .  A
C919        C920   1.393       .  A
C919        F924   1.358       .  S
C920        C921   1.407       .  A
C920        H925   1.084       .  S
C921        C922   1.410       .  A
C922        F926   1.357       .  S
C923        C928   1.402       .  A
C923        C932   1.400       .  A
C928        C929   1.398       .  A
C928        F933   1.357       .  S
C929        C930   1.407       .  A
C929        H934   1.084       .  S
C930        C931   1.410       .  A
C931        C932   1.393       .  A
C931        F935   1.358       .  S
C932        H936   1.084       .  S
C937        C938   1.402       .  A
C937        C942   1.395       .  A
C937        H947   1.084       .  S
C938        C943   1.472       .  S
C938        C939   1.404       .  A
C939        C940   1.393       .  A
C939        F944   1.358       .  S
C940        C941   1.405       .  A
C940        H945   1.084       .  S
C941        C942   1.409       .  A
C942        F946   1.358       .  S
C943        C948   1.404       .  A
C943        C952   1.400       .  A
C948        C949   1.398       .  A
C948        F953   1.358       .  S
C949        C950   1.407       .  A
C949        H954   1.084       .  S
C950        C951   1.410       .  A
C951        C952   1.391       .  A
C951        F955   1.357       .  S
C952        H956   1.084       .  S
C957        C958   1.401       .  A
C957        C962   1.394       .  A
C957        H967   1.084       .  S
C958        C963   1.464       .  S
C958        C959   1.402       .  A
C959        C960   1.387       .  A
C959        F964   1.358       .  S
C960        C961   1.404       .  A
C960        H965   1.084       .  S
C961        C962   1.409       .  A
C962        F966   1.358       .  S
C963        C968   1.403       .  A
C963        C972   1.399       .  A
C968        C969   1.391       .  A
C968        F973   1.358       .  S
C969        C970   1.403       .  A
C969        H974   1.084       .  S
C970        C971   1.410       .  A
C971        C972   1.391       .  A
C971        F975   1.358       .  S
C972        H976   1.084       .  S
C977        C978   1.401       .  A
C977        C982   1.392       .  A
C977        H987   1.084       .  S
C978        C983   1.471       .  S
C978        C979   1.404       .  A
C979        C980   1.395       .  A
C979        F984   1.358       .  S
C980        C981   1.406       .  A
C980        H985   1.084       .  S
C981        C982   1.408       .  A
C982        F986   1.357       .  S
C983        C988   1.405       .  A
C983        C992   1.401       .  A
C988        C989   1.396       .  A
C988        F993   1.358       .  S
C989        C990   1.405       .  A
C989        H994   1.083       .  S
C990        C991   1.407       .  A
C991        C992   1.390       .  A
C991        F995   1.358       .  S
C992        H996   1.084       .  S
C997        C998   1.401       .  A
C997       C1002   1.392       .  A
C997       H1007   1.084       .  S
C998       C1003   1.474       .  S
C998        C999   1.405       .  A
C999       C1000   1.396       .  A
C999       F1004   1.357       .  S
C1000      C1001   1.405       .  A
C1000      H1005   1.084       .  S
C1001      C1002   1.410       .  A
C1002      F1006   1.358       .  S
C1003      C1008   1.405       .  A
C1003      C1012   1.402       .  A
C1008      C1009   1.395       .  A
C1008      F1013   1.358       .  S
C1009      C1010   1.406       .  A
C1009      H1014   1.084       .  S
C1010      C1011   1.409       .  A
C1011      C1012   1.394       .  A
C1011      F1015   1.357       .  S
C1012      H1016   1.084       .  S
C1017      C1018   1.406       .  A
C1017      C1022   1.394       .  A
C1017      H1027   1.083       .  S
C1018      C1023   1.481       .  S
C1018      C1019   1.410       .  A
C1019      C1020   1.394       .  A
C1019      F1024   1.357       .  S
C1020      C1021   1.399       .  A
C1020      H1025   1.084       .  S
C1021      C1022   1.400       .  A
C1022      F1026   1.358       .  S
C1023      C1028   1.410       .  A
C1023      C1032   1.405       .  A
C1028      C1029   1.393       .  A
C1028      F1033   1.357       .  S
C1029      C1030   1.399       .  A
C1029      H1034   1.084       .  S
C1030      C1031   1.404       .  A
C1031      C1032   1.395       .  A
C1031      F1035   1.358       .  S
C1032      H1036   1.083       .  S
C1037      C1038   1.401       .  A
C1037      C1042   1.393       .  A
C1037      H1047   1.086       .  S
C1038      C1043   1.473       .  S
C1038      C1039   1.404       .  A
C1039      C1040   1.398       .  A
C1039      F1044   1.358       .  S
C1040      C1041   1.407       .  A
C1040      H1045   1.085       .  S
C1041      C1042   1.409       .  A
C1042      F1046   1.357       .  S
C1043      C1048   1.404       .  A
C1043      C1052   1.401       .  A
C1048      C1049   1.394       .  A
C1048      F1053   1.358       .  S
C1049      C1050   1.405       .  A
C1049      H1054   1.085       .  S
C1050      C1051   1.409       .  A
C1051      C1052   1.396       .  A
C1051      F1055   1.358       .  S
C1052      H1056   1.085       .  S
C1057      C1058   1.403       .  A
C1057      C1062   1.397       .  A
C1057      H1067   1.084       .  S
C1058      C1063   1.478       .  S
C1058      C1059   1.404       .  A
C1059      C1060   1.394       .  A
C1059      F1064   1.358       .  S
C1060      C1061   1.406       .  A
C1060      H1065   1.084       .  S
C1061      C1062   1.409       .  A
C1062      F1066   1.357       .  S
C1063      C1068   1.404       .  A
C1063      C1072   1.403       .  A
C1068      C1069   1.396       .  A
C1068      F1073   1.358       .  S
C1069      C1070   1.407       .  A
C1069      H1074   1.083       .  S
C1070      C1071   1.410       .  A
C1071      C1072   1.397       .  A
C1071      F1075   1.357       .  S
C1072      H1076   1.084       .  S
C1077      C1078   1.401       .  A
C1077      C1082   1.395       .  A
C1077      H1087   1.084       .  S
C1078      C1083   1.472       .  S
C1078      C1079   1.402       .  A
C1079      C1080   1.396       .  A
C1079      F1084   1.357       .  S
C1080      C1081   1.407       .  A
C1080      H1085   1.083       .  S
C1081      C1082   1.410       .  A
C1082      F1086   1.358       .  S
C1083      C1088   1.403       .  A
C1083      C1092   1.400       .  A
C1088      C1089   1.398       .  A
C1088      F1093   1.358       .  S
C1089      C1090   1.408       .  A
C1089      H1094   1.083       .  S
C1090      C1091   1.410       .  A
C1091      C1092   1.395       .  A
C1091      F1095   1.357       .  S
C1092      H1096   1.084       .  S
C1097      C1098   1.401       .  A
C1097      C1102   1.392       .  A
C1097      H1107   1.084       .  S
C1098      C1103   1.467       .  S
C1098      C1099   1.403       .  A
C1099      C1100   1.391       .  A
C1099      F1104   1.358       .  S
C1100      C1101   1.405       .  A
C1100      H1105   1.083       .  S
C1101      C1102   1.408       .  A
C1102      F1106   1.357       .  S
C1103      C1108   1.404       .  A
C1103      C1112   1.400       .  A
C1108      C1109   1.393       .  A
C1108      F1113   1.358       .  S
C1109      C1110   1.405       .  A
C1109      H1114   1.084       .  S
C1110      C1111   1.408       .  A
C1111      C1112   1.391       .  A
C1111      F1115   1.358       .  S
C1112      H1116   1.084       .  S
C1117      C1118   1.402       .  A
C1117      C1122   1.394       .  A
C1117      H1127   1.084       .  S
C1118      C1123   1.473       .  S
C1118      C1119   1.404       .  A
C1119      C1120   1.395       .  A
C1119      F1124   1.358       .  S
C1120      C1121   1.406       .  A
C1120      H1125   1.084       .  S
C1121      C1122   1.409       .  A
C1122      F1126   1.358       .  S
C1123      C1128   1.403       .  A
C1123      C1132   1.403       .  A
C1128      C1129   1.393       .  A
C1128      F1133   1.358       .  S
C1129      C1130   1.407       .  A
C1129      H1134   1.084       .  S
C1130      C1131   1.408       .  A
C1131      C1132   1.395       .  A
C1131      F1135   1.357       .  S
C1132      H1136   1.084       .  S
C1137      C1138   1.399       .  A
C1137      C1142   1.391       .  A
C1137      H1147   1.084       .  S
C1138      C1143   1.463       .  S
C1138      C1139   1.401       .  A
C1139      C1140   1.392       .  A
C1139      F1144   1.358       .  S
C1140      C1141   1.405       .  A
C1140      H1145   1.083       .  S
C1141      C1142   1.409       .  A
C1142      F1146   1.358       .  S
C1143      C1148   1.401       .  A
C1143      C1152   1.399       .  A
C1148      C1149   1.393       .  A
C1148      F1153   1.358       .  S
C1149      C1150   1.406       .  A
C1149      H1154   1.083       .  S
C1150      C1151   1.409       .  A
C1151      C1152   1.391       .  A
C1151      F1155   1.357       .  S
C1152      H1156   1.084       .  S
C1157      C1158   1.400       .  A
C1157      C1162   1.393       .  A
C1157      H1167   1.085       .  S
C1158      C1163   1.471       .  S
C1158      C1159   1.404       .  A
C1159      C1160   1.395       .  A
C1159      F1164   1.358       .  S
C1160      C1161   1.407       .  A
C1160      H1165   1.084       .  S
C1161      C1162   1.410       .  A
C1162      F1166   1.357       .  S
C1163      C1168   1.403       .  A
C1163      C1172   1.400       .  A
C1168      C1169   1.396       .  A
C1168      F1173   1.358       .  S
C1169      C1170   1.406       .  A
C1169      H1174   1.084       .  S
C1170      C1171   1.410       .  A
C1171      C1172   1.392       .  A
C1171      F1175   1.358       .  S
C1172      H1176   1.085       .  S
C1177      C1178   1.402       .  A
C1177      C1182   1.395       .  A
C1177      H1187   1.084       .  S
C1178      C1183   1.470       .  S
C1178      C1179   1.403       .  A
C1179      C1180   1.392       .  A
C1179      F1184   1.358       .  S
C1180      C1181   1.406       .  A
C1180      H1185   1.083       .  S
C1181      C1182   1.409       .  A
C1182      F1186   1.357       .  S
C1183      C1188   1.403       .  A
C1183      C1192   1.402       .  A
C1188      C1189   1.391       .  A
C1188      F1193   1.358       .  S
C1189      C1190   1.405       .  A
C1189      H1194   1.083       .  S
C1190      C1191   1.408       .  A
C1191      C1192   1.395       .  A
C1191      F1195   1.357       .  S
C1192      H1196   1.084       .  S
C1197      C1198   1.404       .  A
C1197      C1202   1.398       .  A
C1197      H1207   1.084       .  S
C1198      C1203   1.475       .  S
C1198      C1199   1.405       .  A
C1199      C1200   1.394       .  A
C1199      F1204   1.358       .  S
C1200      C1201   1.404       .  A
C1200      H1205   1.084       .  S
C1201      C1202   1.407       .  A
C1202      F1206   1.357       .  S
C1203      C1208   1.405       .  A
C1203      C1212   1.402       .  A
C1208      C1209   1.397       .  A
C1208      F1213   1.357       .  S
C1209      C1210   1.405       .  A
C1209      H1214   1.084       .  S
C1210      C1211   1.409       .  A
C1211      C1212   1.394       .  A
C1211      F1215   1.358       .  S
C1212      H1216   1.084       .  S
C1217      C1218   1.402       .  A
C1217      C1222   1.397       .  A
C1217      H1227   1.084       .  S
C1218      C1223   1.469       .  S
C1218      C1219   1.402       .  A
C1219      C1220   1.391       .  A
C1219      F1224   1.358       .  S
C1220      C1221   1.406       .  A
C1220      H1225   1.083       .  S
C1221      C1222   1.410       .  A
C1222      F1226   1.357       .  S
C1223      C1228   1.401       .  A
C1223      C1232   1.402       .  A
C1228      C1229   1.392       .  A
C1228      F1233   1.358       .  S
C1229      C1230   1.406       .  A
C1229      H1234   1.083       .  S
C1230      C1231   1.409       .  A
C1231      C1232   1.395       .  A
C1231      F1235   1.357       .  S
C1232      H1236   1.084       .  S
C1237      C1238   1.400       .  A
C1237      C1242   1.395       .  A
C1237      H1247   1.084       .  S
C1238      C1243   1.470       .  S
C1238      C1239   1.402       .  A
C1239      C1240   1.395       .  A
C1239      F1244   1.358       .  S
C1240      C1241   1.407       .  A
C1240      H1245   1.084       .  S
C1241      C1242   1.411       .  A
C1242      F1246   1.357       .  S
C1243      C1248   1.403       .  A
C1243      C1252   1.399       .  A
C1248      C1249   1.398       .  A
C1248      F1253   1.357       .  S
C1249      C1250   1.407       .  A
C1249      H1254   1.083       .  S
C1250      C1251   1.410       .  A
C1251      C1252   1.392       .  A
C1251      F1255   1.358       .  S
C1252      H1256   1.084       .  S
C1257      C1258   1.403       .  A
C1257      C1262   1.396       .  A
C1257      H1267   1.084       .  S
C1258      C1263   1.477       .  S
C1258      C1259   1.405       .  A
C1259      C1260   1.394       .  A
C1259      F1264   1.358       .  S
C1260      C1261   1.405       .  A
C1260      H1265   1.084       .  S
C1261      C1262   1.407       .  A
C1262      F1266   1.357       .  S
C1263      C1268   1.405       .  A
C1263      C1272   1.402       .  A
C1268      C1269   1.396       .  A
C1268      F1273   1.358       .  S
C1269      C1270   1.406       .  A
C1269      H1274   1.084       .  S
C1270      C1271   1.409       .  A
C1271      C1272   1.395       .  A
C1271      F1275   1.357       .  S
C1272      H1276   1.084       .  S
C1277      C1278   1.401       .  A
C1277      C1282   1.398       .  A
C1277      H1287   1.084       .  S
C1278      C1283   1.473       .  S
C1278      C1279   1.403       .  A
C1279      C1280   1.395       .  A
C1279      F1284   1.358       .  S
C1280      C1281   1.406       .  A
C1280      H1285   1.083       .  S
C1281      C1282   1.411       .  A
C1282      F1286   1.357       .  S
C1283      C1288   1.403       .  A
C1283      C1292   1.400       .  A
C1288      C1289   1.397       .  A
C1288      F1293   1.358       .  S
C1289      C1290   1.407       .  A
C1289      H1294   1.083       .  S
C1290      C1291   1.411       .  A
C1291      C1292   1.395       .  A
C1291      F1295   1.357       .  S
C1292      H1296   1.084       .  S
