geometry optimzed in LAMMPS
_audit_creation_date              2020-12-01 
_audit_creation_method            'lammps2cif' 
_symmetry_space_group_name_H-M    'P1' 
_symmetry_Int_Tables_number       1 
_symmetry_cell_setting            triclinic 
loop_ 
_symmetry_equiv_pos_as_xyz 
  x,y,z 
_cell_length_a                    39.0506444 
_cell_length_b                    39.11723154839659 
_cell_length_c                    39.08543257609887 
_cell_angle_alpha                 89.61474424363485 
_cell_angle_beta                  89.29457629532621 
_cell_angle_gamma                 88.66865836614004 
loop_ 
_atom_site_label 
_atom_site_type_symbol 
_atom_site_fract_x 
_atom_site_fract_y 
_atom_site_fract_z 
_atom_site_charge 
C1          C  0.99171420  0.10573648  0.17048126     0.43600
N2          N  0.47991034  0.07281828  0.21291747     0.02500
C3          C  0.08435565  0.46226406  0.30553947    -0.05400
H4          H  0.08532864  0.43875612  0.17599708     0.07900
C5          C  0.47405893  0.41141154  0.17945070    -0.05800
Co6        Co  0.03956372  0.04575765  0.24917519     0.74200
N7          N  0.06212964  0.47889112  0.20636189    -0.25000
Co8        Co  0.03533228  0.45220781  0.24333025     0.74100
C9          C  0.98571612  0.39963046  0.16460327     0.43700
N10         N  0.42934370  0.48494182  0.20601841     0.02100
N11         N  0.00506800  0.42913070  0.20587304     0.02200
N12         N  0.08316136  0.03388545  0.31097019    -0.45800
H13         H  0.04957950  0.09701055  0.17945552     0.07900
N14         N  0.06806607  0.01727132  0.21228178     0.02500
N15         N  0.00776359  0.42683756  0.28085129     0.02200
C16         C  0.49929726  0.39378274  0.32338535     0.43800
N17         N  0.42850993  0.02041453  0.21001263    -0.24400
C18         C  0.02030032  0.09192025  0.31238789    -0.05300
N19         N  0.46690446  0.09239719  0.18834873    -0.45500
N20         N  0.02108285  0.40743088  0.30530028    -0.45700
C21         C  0.48730979  0.10265698  0.32943280     0.43600
N22         N  0.06515517  0.01918887  0.28700986     0.02400
N23         N  0.42345010  0.01520050  0.28425690    -0.24400
N24         N  0.01227849  0.07249905  0.21202080    -0.24900
N25         N  0.42528774  0.48021151  0.28064915     0.02100
H26         H  0.39584550  0.04964095  0.31829133     0.08000
H27         H  0.44177670  0.40058771  0.31127731     0.08000
N28         N  0.06467339  0.47610132  0.28083296    -0.25000
N29         N  0.48368166  0.42995542  0.20618572    -0.24600
N30         N  0.47651990  0.06998932  0.28747251     0.02500
C31         C  0.10123454  0.99886057  0.17212049     0.43900
C32         C  0.41116491  0.03522252  0.18464916    -0.08200
N33         N  0.47996910  0.42649198  0.28081716    -0.24600
H34         H  0.44786770  0.40674953  0.17252036     0.08000
N35         N  0.08852760  0.02786462  0.18704579    -0.45800
H36         H  0.40627437  0.06236105  0.18139222     0.08000
C37         C  0.38856803  0.49139883  0.32045317     0.43700
C38         C  0.02313078  0.09220210  0.18598384    -0.05300
Co39       Co  0.45160577  0.04503720  0.24905381     0.73800
N40         N  0.41185366  0.47454065  0.17922852    -0.45500
C41         C  0.09894814  0.49126931  0.32316046     0.44000
N42         N  0.46178615  0.08859841  0.31194673    -0.45500
Co43       Co  0.45403091  0.45484491  0.24326976     0.73900
C44         C  0.46833863  0.40610146  0.30602215    -0.05800
C45         C  0.08161058  0.46571200  0.18126044    -0.05400
N46         N  0.01037689  0.07178791  0.28683415    -0.24900
N47         N  0.01495104  0.40903729  0.18009279    -0.45700
H48         H  0.08829223  0.43520884  0.31035653     0.08000
C49         C  0.40209609  0.02381745  0.31027580    -0.05800
Cl50       Cl  0.99608220  0.00131806  0.24855954    -0.48800
C51         C  0.39998602  0.00724723  0.16440728     0.43700
H52         H  0.04646345  0.09832671  0.31776698     0.07900
N53         N  0.40365295  0.46583173  0.30247253    -0.45500
C54         C  0.10694034  0.18394287  0.49293657     0.43600
N55         N  0.07056462  0.22374312  0.48028331     0.02500
C56         C  0.45920643  0.30990041  0.08596179    -0.05400
H57         H  0.45066559  0.17688585  0.09306807     0.07900
C58         C  0.41104551  0.18206590  0.47754794    -0.05800
Co59       Co  0.04361617  0.25242681  0.03754387     0.74200
N60         N  0.48426554  0.21163277  0.06710801    -0.25000
Co61       Co  0.45180227  0.24561465  0.04117607     0.74100
C62         C  0.39936691  0.16711092  0.50999319     0.43700
N63         N  0.48421509  0.21001381  0.42971099     0.02100
N64         N  0.43040054  0.20560379  0.01455977     0.02200
N65         N  0.02942670  0.31245910  0.08369092    -0.45800
H66         H  0.09752464  0.18475137  0.04417290     0.07900
N67         N  0.01948437  0.21363639  0.06535636     0.02500
N68         N  0.42001057  0.27994312  0.01442225     0.02200
C69         C  0.38875241  0.32414866  0.50293574     0.43800
N70         N  0.01707043  0.21639656  0.42820702    -0.24400
C71         C  0.08511604  0.31796343  0.01961986    -0.05300
N72         N  0.09157192  0.20034345  0.46671778    -0.45500
N73         N  0.39835773  0.30285551  0.02794972    -0.45700
C74         C  0.09114131  0.34117731  0.48949453     0.43600
N75         N  0.01582018  0.28803175  0.06547058     0.02400
N76         N  0.00581085  0.29003989  0.42680564    -0.24400
N77         N  0.07079914  0.21706335  0.00816112    -0.24900
N78         N  0.47561517  0.28459632  0.42715422     0.02100
H79         H  0.03865436  0.32578778  0.40137094     0.08000
H80         H  0.39465123  0.31121573  0.44559003     0.08000
N81         N  0.47421717  0.28557263  0.06673874    -0.25000
N82         N  0.43070290  0.20823169  0.48647346    -0.24600
N83         N  0.06021872  0.29786105  0.47873314     0.02500
C84         C  0.00885364  0.17169834  0.09930173     0.43900
C85         C  0.03273975  0.19276035  0.40862099    -0.05800
N86         N  0.42373470  0.28272171  0.48329991    -0.24600
H87         H  0.40432549  0.17566461  0.45165249     0.08000
N88         N  0.03436634  0.18947130  0.08439707    -0.45800
H89         H  0.05987920  0.19109243  0.40287984     0.08000
C90         C  0.48392889  0.32652809  0.39286680     0.43700
C91         C  0.09164321  0.19135712  0.01796300    -0.05300
Co92       Co  0.03874083  0.25715433  0.45313605     0.73800
N93         N  0.47480396  0.18370716  0.41088272    -0.45500
C94         C  0.48731892  0.32987630  0.09824037     0.44000
N95         N  0.07790515  0.32262335  0.46412814    -0.45500
Co96       Co  0.45302798  0.24611135  0.45608564     0.73900
C97         C  0.40138029  0.30678318  0.47202825    -0.05800
C98         C  0.47634828  0.18514258  0.08733681    -0.05400
N99         N  0.06638315  0.29166923  0.00928396    -0.24900
N100        N  0.41348148  0.17996970  0.02842903    -0.45700
H101        H  0.43204345  0.31271179  0.09128722     0.08000
C102        C  0.01317913  0.31676408  0.40676398    -0.05800
Cl103      Cl  0.99512164  0.25225855  0.49802393    -0.48800
C104        C  0.00530034  0.17207328  0.39612268     0.43700
H105        H  0.09175933  0.32324910  0.04579681     0.07900
N106        N  0.45948188  0.30723115  0.40737564    -0.45500
C107        C  0.33681511  0.48258607  0.09316961     0.43600
N108        N  0.29060010  0.01253131  0.06873889     0.02500
C109        C  0.17718624  0.41948141  0.46975183    -0.05400
H110        H  0.30579911  0.40864061  0.42752495     0.07900
C111        C  0.30406334  0.03446203  0.41055675    -0.05800
Co112      Co  0.24705576  0.45369459  0.03979259     0.74200
N113        N  0.27964930  0.43277613  0.47032648    -0.25000
Co114      Co  0.24093767  0.46382518  0.44876618     0.74100
C115        C  0.31648742  0.51010755  0.38622093     0.43700
N116        N  0.28369545  0.07193613  0.48497211     0.02100
N117        N  0.27714646  0.49235880  0.42042733     0.02200
N118        N  0.17992900  0.41633937  0.03009192    -0.45800
H119        H  0.31713746  0.42851769  0.08391038     0.07900
N120        N  0.27781784  0.42499018  0.00570503     0.02500
N121        N  0.20202601  0.49554154  0.42793759     0.02200
C122        C  0.16519427  0.99826114  0.40022705     0.43800
N123        N  0.28829274  0.06782197  0.01357927    -0.24400
C124        C  0.18953906  0.47600228  0.09286570    -0.05300
N125        N  0.31771926  0.02100828  0.08683852    -0.45500
N126        N  0.17765333  0.48599524  0.40679257    -0.45700
C127        C  0.17359834  0.01239731  0.10780983     0.43600
N128        N  0.20383811  0.43527900  0.01561304     0.02400
N129        N  0.21405064  0.07222696  0.02087113    -0.24400
N130        N  0.29042469  0.47272359  0.06299023    -0.24900
N131        N  0.20864135  0.07446326  0.49081776     0.02100
H132        H  0.18821601  0.09938524  0.06190941     0.08000
H133        H  0.17155802  0.05653140  0.40770700     0.08000
N134        N  0.20494433  0.43706313  0.47869710    -0.25000
N135        N  0.28029952  0.02077477  0.43078007    -0.24600
N136        N  0.21611549  0.02032184  0.07425229     0.02500
C137        C  0.32133209  0.39515025  0.48267765     0.43900
C138        C  0.31598481  0.08560123  0.02159480    -0.05800
N139        N  0.20569759  0.02044161  0.43335508    -0.24600
H140        H  0.30755987  0.06149826  0.40621913     0.08000
N141        N  0.30168190  0.40161796  0.01361175    -0.45800
H142        H  0.32509218  0.08971309  0.04721750     0.08000
C143        C  0.17149756  0.11050174  0.51109062     0.43700
C144        C  0.31537198  0.45588215  0.07989131    -0.05300
Co145      Co  0.25286095  0.04381848  0.04486990     0.73800
N146        N  0.30747216  0.09115170  0.47054444    -0.45500
C147        C  0.16352891  0.40556797  0.50203098     0.44000
N148        N  0.19361827  0.03646982  0.09425588    -0.45500
Co149      Co  0.24397612  0.04746345  0.45947698     0.73900
C150        C  0.17914086  0.03036827  0.41340920    -0.05800
C151        C  0.30292521  0.41214331  0.45484638    -0.05400
N152        N  0.21641021  0.48399520  0.07276681    -0.24900
N153        N  0.30079813  0.48156730  0.39786521    -0.45700
H154        H  0.16821414  0.41630911  0.44392780     0.08000
C155        C  0.19054351  0.09327659  0.03502564    -0.05800
Cl156      Cl  0.24625377  0.00137736  0.50224672    -0.48800
C157        C  0.32767153  0.10207752  0.49586168     0.43700
H158        H  0.17892900  0.45082835  0.09551503     0.07900
N159        N  0.18434971  0.09696206  0.48160887    -0.45500
C160        C  0.34794791  0.36766091  0.47920301    -0.15300
C161        C  0.36277884  0.35228923  0.50633252    -0.30500
H162        H  0.34765245  0.35451551  0.95337400     0.13700
H163        H  0.35562359  0.36045270  0.53200360     0.14300
C164        C  0.37321282  0.14061095  0.51594593    -0.15300
C165        C  0.35579842  0.12649482  0.49029043    -0.30500
H166        H  0.37131999  0.12619681  0.03378396     0.13700
H167        H  0.36140527  0.13390121  0.46404342     0.14300
C168        C  0.11693245  0.36789842  0.48321209    -0.15300
C169        C  0.13520823  0.38157148  0.50835553    -0.30500
H170        H  0.12315808  0.37335389  0.95735708     0.13700
H171        H  0.13033485  0.37390522  0.53467756     0.14300
C172        C  0.13186960  0.15524491  0.48827475    -0.15300
C173        C  0.14597404  0.13870085  0.51485924    -0.30500
H174        H  0.13875548  0.14767401  0.46235446     0.13700
H175        H  0.13573588  0.14015204  0.03458773     0.14300
C176        C  0.34473624  0.51290510  0.36100877    -0.15300
C177        C  0.36055607  0.48629660  0.34576329    -0.30500
H178        H  0.35283512  0.53862481  0.35495850     0.13700
H179        H  0.35632189  0.95812168  0.35594688     0.14300
C180        C  0.13848285  0.99148204  0.37473962    -0.15300
C181        C  0.12362676  0.48942275  0.35201425    -0.30500
H182        H  0.12640331  0.54243709  0.36021644     0.13700
H183        H  0.12630539  0.04265970  0.36338672     0.14300
C184        C  0.12641858  0.99494245  0.14435940    -0.15300
C185        C  0.14598388  0.01992351  0.13273704    -0.30500
H186        H  0.13042840  0.46578364  0.12967151     0.13700
H187        H  0.14250925  0.04578343  0.14234218     0.14300
C188        C  0.37597896  0.01181167  0.13609570    -0.15300
C189        C  0.36351507  0.47830523  0.11932436    -0.30500
H190        H  0.36964810  0.03776339  0.12784345     0.13700
H191        H  0.37038346  0.45267501  0.12810208     0.14300
C192        C  0.48166472  0.12767535  0.35716457    -0.15300
C193        C  0.00964486  0.14465337  0.37067270    -0.30500
H194        H  0.45555174  0.13498939  0.36430830     0.13700
H195        H  0.03561642  0.13842195  0.36226739     0.14300
C196        C  0.47744131  0.35280438  0.36641146    -0.15300
C197        C  0.50344183  0.36935512  0.35172668    -0.30500
H198        H  0.45129520  0.35775336  0.35827483     0.13700
H199        H  0.02544854  0.36652518  0.36035327     0.14300
C200        C  0.98191401  0.37420712  0.13752667    -0.15300
C201        C  0.48392681  0.35817065  0.12265806    -0.30500
H202        H  0.53674982  0.36478607  0.12977128     0.13700
H203        H  0.03434229  0.36300463  0.13062515     0.14300
C204        C  0.98750959  0.13053147  0.14214522    -0.15300
C205        C  0.01404045  0.14483582  0.12566345    -0.30500
H206        H  0.46306502  0.13579591  0.13473386     0.13700
H207        H  0.04013513  0.13763604  0.13236244     0.14300
C208        C  0.99508637  0.10584983  0.67131849     0.43600
N209        N  0.48091357  0.07289181  0.71235452     0.02500
C210        C  0.08409762  0.46795417  0.81243617    -0.05400
H211        H  0.09115037  0.43693976  0.68391713     0.07900
C212        C  0.45181725  0.41731701  0.68771277    -0.05800
Co213      Co  0.03783888  0.04294924  0.75203787     0.74200
N214        N  0.06850083  0.47916467  0.71188252    -0.25000
Co215      Co  0.03946709  0.45547262  0.74884806     0.74100
C216        C  0.00034344  0.39973927  0.66845636     0.43700
N217        N  0.42093019  0.49649020  0.71503184     0.02100
N218        N  0.01236827  0.43077090  0.71140680     0.02200
N219        N  0.07800730  0.02986901  0.81607000    -0.45800
H220        H  0.05250802  0.09639511  0.68274529     0.07900
N221        N  0.06772924  0.01311660  0.71725529     0.02500
N222        N  0.00971859  0.43243550  0.78577947     0.02200
C223        C  0.49393275  0.40019296  0.82672177     0.43800
N224        N  0.42785988  0.02287126  0.70723591    -0.24400
C225        C  0.01600711  0.09009884  0.81364700    -0.05300
N226        N  0.46886611  0.09339158  0.68810305    -0.45500
N227        N  0.02212909  0.41358320  0.81100505    -0.45700
C228        C  0.48734302  0.10316525  0.82792291     0.43600
N229        N  0.06004893  0.01557972  0.79180898     0.02400
N230        N  0.42068205  0.01675499  0.78151683    -0.24400
N231        N  0.01364826  0.07100046  0.71296914    -0.24900
N232        N  0.42580847  0.49624027  0.78995404     0.02100
H233        H  0.39421939  0.05026625  0.81741335     0.08000
H234        H  0.43635487  0.41419108  0.82196145     0.08000
N235        N  0.06646032  0.48096910  0.78604638    -0.25000
N236        N  0.46744753  0.43519873  0.71189136    -0.24600
N237        N  0.47583043  0.06986972  0.78666568     0.02500
C238        C  0.10315590  0.99381702  0.67925360     0.43900
C239        C  0.41078627  0.03796706  0.68177166    -0.08200
N240        N  0.47333440  0.43498365  0.78627640    -0.24600
H241        H  0.42443541  0.41576593  0.68441375     0.08000
N242        N  0.08951866  0.02306758  0.69286620    -0.45800
H243        H  0.40594561  0.06514207  0.67873032     0.08000
C244        C  0.39516056  0.51577153  0.83168052     0.43700
C245        C  0.02580325  0.09143993  0.68788733    -0.05300
Co246      Co  0.45081179  0.04609382  0.74743645     0.73800
N247        N  0.40042066  0.48659317  0.69028148    -0.45500
C248        C  0.09855219  0.49736205  0.82898899     0.44000
N249        N  0.46148320  0.08961418  0.81046176    -0.45500
Co250      Co  0.44625019  0.46524938  0.75091577     0.73900
C251        C  0.46261905  0.41640687  0.81329606    -0.05800
C252        C  0.08790281  0.46417800  0.68777065    -0.05400
N253        N  0.00712205  0.07007222  0.78767338    -0.24900
N254        N  0.02623717  0.41131578  0.68715026    -0.45700
H255        H  0.08697744  0.44111364  0.81884832     0.08000
C256        C  0.39951019  0.02475720  0.80793128    -0.05800
Cl257      Cl  0.99327156  0.99996472  0.74885150    -0.48800
C258        C  0.39951003  0.00998936  0.66132804     0.43700
H259        H  0.04199028  0.09572366  0.82055093     0.07900
N260        N  0.40406563  0.48696117  0.81448845    -0.45500
C261        C  0.10403677  0.17609092  0.98601688     0.43600
N262        N  0.07005570  0.21820182  0.97446295     0.02500
C263        C  0.46949635  0.31529010  0.58876719    -0.05400
H264        H  0.45391976  0.18249843  0.59837937     0.07900
C265        C  0.41158665  0.17881982  0.97061331    -0.05800
Co266      Co  0.03970552  0.25874847  0.54162193     0.74200
N267        N  0.48803139  0.21549822  0.57080070    -0.25000
Co268      Co  0.45610286  0.25001540  0.54468602     0.74100
C269        C  0.40103819  0.16178875  0.00240274     0.43700
N270        N  0.48353407  0.21204171  0.92568111     0.02100
N271        N  0.43160301  0.20973726  0.52020437     0.02200
N272        N  0.01444834  0.31956012  0.58711055    -0.45800
H273        H  0.09943589  0.19358698  0.55090092     0.07900
N274        N  0.01779200  0.21857682  0.56938886     0.02500
N275        N  0.42517325  0.28456828  0.51699444     0.02200
C276        C  0.38269085  0.31902609  0.00162536     0.43800
N277        N  0.01466285  0.21646847  0.92460569    -0.24400
C278        C  0.08017533  0.32512767  0.52180718    -0.05300
N279        N  0.08973250  0.19409173  0.96009725    -0.45500
N280        N  0.40454372  0.30884852  0.52973975    -0.45700
C281        C  0.09452447  0.33602985  0.98808706     0.43600
N282        N  0.00639251  0.29313830  0.56779181     0.02400
N283        N  0.00723762  0.29050295  0.92540584    -0.24400
N284        N  0.07108543  0.22396981  0.51405145    -0.24900
N285        N  0.47255807  0.28644530  0.92609900     0.02100
H286        H  0.04028560  0.32614321  0.89996241     0.08000
H287        H  0.39042503  0.30951199  0.94376660     0.08000
N288        N  0.48159280  0.29002152  0.56849038    -0.25000
N289        N  0.42963091  0.20567152  0.98080321    -0.24600
N290        N  0.06417958  0.29295263  0.97565793     0.02500
C291        C  0.01002681  0.17552416  0.60283900     0.43900
C292        C  0.02881196  0.19232543  0.90476434    -0.05800
N293        N  0.41947249  0.27990702  0.98066587    -0.24600
H294        H  0.40538606  0.17302616  0.94442724     0.08000
N295        N  0.03411537  0.19592660  0.58912530    -0.45800
H296        H  0.05577912  0.18932287  0.89857997     0.08000
C297        C  0.48007760  0.33075263  0.89463335     0.43700
C298        C  0.09349989  0.19958331  0.52455735    -0.05300
Co299      Co  0.03947696  0.25477393  0.94945896     0.73800
N300        N  0.47497858  0.18586457  0.90635307    -0.45500
C301        C  0.49998406  0.33331740  0.59961411     0.44000
N302        N  0.08087791  0.31886440  0.96193252    -0.45500
Co303      Co  0.45076283  0.24582209  0.95266180     0.73900
C304        C  0.39658755  0.30379134  0.97011534    -0.05800
C305        C  0.47974353  0.18969122  0.59176072    -0.05400
N306        N  0.06120210  0.29849478  0.51247974    -0.24900
N307        N  0.41303427  0.18576628  0.53519935    -0.45700
H308        H  0.44293136  0.31954452  0.59600000     0.08000
C309        C  0.01472720  0.31783769  0.90616633    -0.05800
Cl310      Cl  0.99716022  0.25120222  0.99594383    -0.48800
C311        C  0.00030276  0.17274185  0.89341215     0.43700
H312        H  0.08697758  0.33120823  0.54776437     0.07900
N313        N  0.45605684  0.30990035  0.90755843    -0.45500
C314        C  0.33247262  0.49138633  0.59793020     0.43600
N315        N  0.28772430  0.01185751  0.57065414     0.02500
C316        C  0.17256533  0.42096625  0.97291700    -0.05400
H317        H  0.29815810  0.40371100  0.92886911     0.07900
C318        C  0.30193997  0.03129220  0.90732404    -0.05800
Co319      Co  0.24950598  0.45578704  0.53748373     0.74200
N320        N  0.27392241  0.42857000  0.97233551    -0.25000
Co321      Co  0.23719128  0.46236329  0.95195407     0.74100
C322        C  0.31749313  0.49845774  0.89024085     0.43700
N323        N  0.28384364  0.06948700  0.98018195     0.02100
N324        N  0.27479713  0.48732554  0.92325375     0.02200
N325        N  0.18431605  0.41593195  0.52698882    -0.45800
H326        H  0.31745653  0.43588514  0.58760607     0.07900
N327        N  0.28292148  0.42940158  0.50384231     0.02500
N328        N  0.20054385  0.49688325  0.93220088     0.02200
C329        C  0.16250702  0.99350653  0.90225751     0.43800
N330        N  0.28703121  0.06947209  0.51847145    -0.24400
C331        C  0.19010399  0.47453941  0.59059390    -0.05300
N332        N  0.31500392  0.02057236  0.58814779    -0.45500
N333        N  0.17477008  0.48923309  0.91205480    -0.45700
C334        C  0.17120341  0.00929153  0.60971300     0.43600
N335        N  0.20831274  0.43456601  0.51225483     0.02400
N336        N  0.21275917  0.07346503  0.52432121    -0.24400
N337        N  0.29061400  0.47779894  0.56261448    -0.24900
N338        N  0.20918784  0.07145308  0.98749783     0.02100
H339        H  0.18823580  0.10029696  0.56627681     0.08000
H340        H  0.16911834  0.05190771  0.90816530     0.08000
N341        N  0.20028104  0.43820335  0.98214961    -0.25000
N342        N  0.27890700  0.01739577  0.92803530    -0.24600
N343        N  0.21314790  0.01894979  0.57558286     0.02500
C344        C  0.31418933  0.38927435  0.98359895     0.43900
C345        C  0.31405438  0.08780912  0.52786814    -0.05800
N346        N  0.20466105  0.01639428  0.93260613    -0.24600
H347        H  0.30479976  0.05833132  0.90248790     0.08000
N348        N  0.30747609  0.40697138  0.51233209    -0.45800
H349        H  0.32224817  0.09158431  0.55386888     0.08000
C350        C  0.17051037  0.10603343  0.00648179     0.43700
C351        C  0.31470489  0.46300028  0.58242681    -0.05300
Co352      Co  0.25062388  0.04380653  0.54775604     0.73800
N353        N  0.30753652  0.08776962  0.96443820    -0.45500
C354        C  0.15907883  0.40655450  0.00488583     0.44000
N355        N  0.19063512  0.03407968  0.59641062    -0.45500
Co356      Co  0.24355968  0.04423186  0.95662358     0.73900
C357        C  0.17712701  0.02586490  0.91386844    -0.05800
C358        C  0.29580994  0.40697167  0.95626200    -0.05400
N359        N  0.21606803  0.48396572  0.56991263    -0.24900
N360        N  0.29770103  0.47302015  0.90212763    -0.45700
H361        H  0.16420261  0.41748148  0.94692919     0.08000
C362        C  0.19023375  0.09506675  0.53918291    -0.05800
Cl363      Cl  0.24725652  0.99992295  0.00088726    -0.48800
C364        C  0.32879841  0.09863150  0.98881954     0.43700
H365        H  0.18142489  0.44870326  0.59420487     0.07900
N366        N  0.18355206  0.09187256  0.97756948    -0.45500
C367        C  0.34081297  0.36202005  0.97930312    -0.15300
C368        C  0.35628686  0.34654091  0.00594563    -0.30500
H369        H  0.35518983  0.35975128  0.45349750     0.13700
H370        H  0.34937093  0.35413377  0.03185469     0.14300
C371        C  0.37584242  0.13468543  0.00766143    -0.15300
C372        C  0.35695110  0.12246887  0.98225127    -0.30500
H373        H  0.36727761  0.13364020  0.54224937     0.13700
H374        H  0.36108988  0.13122944  0.95615031     0.14300
C375        C  0.11763195  0.36513084  0.98338291    -0.15300
C376        C  0.13292316  0.38018561  0.00972672    -0.30500
H377        H  0.12214635  0.37515437  0.45683378     0.13700
H378        H  0.12764009  0.37168993  0.03571593     0.14300
C379        C  0.12918270  0.14774121  0.98166221    -0.15300
C380        C  0.14327618  0.13234288  0.00895487    -0.30500
H381        H  0.13692413  0.14023137  0.95594894     0.13700
H382        H  0.13913556  0.14640205  0.54073256     0.14300
C383        C  0.34696399  0.49347595  0.86648208    -0.15300
C384        C  0.36711949  0.51941086  0.85718236    -0.30500
H385        H  0.35183831  0.46810149  0.85613001     0.13700
H386        H  0.35162090  0.95760281  0.84920781     0.14300
C387        C  0.13422485  0.98660341  0.87845307    -0.15300
C388        C  0.12194599  0.49556483  0.85850880    -0.30500
H389        H  0.12803901  0.54854777  0.86472595     0.13700
H390        H  0.12133931  0.03786221  0.86822682     0.14300
C391        C  0.12862584  0.98974290  0.65145191    -0.15300
C392        C  0.14451405  0.01562068  0.63616703    -0.30500
H393        H  0.13545472  0.46137831  0.63448129     0.13700
H394        H  0.13863973  0.04177454  0.64380462     0.14300
C395        C  0.37444373  0.01367171  0.63411462    -0.15300
C396        C  0.35644075  0.48909810  0.62712130    -0.30500
H397        H  0.36686690  0.03935185  0.62600392     0.13700
H398        H  0.36400980  0.46382950  0.63638383     0.14300
C399        C  0.48232024  0.12931828  0.85460782    -0.15300
C400        C  0.00388858  0.14419541  0.86934480    -0.30500
H401        H  0.45630076  0.13677997  0.86193728     0.13700
H402        H  0.02989201  0.13667265  0.86212841     0.14300
C403        C  0.47304900  0.35857168  0.86980010    -0.15300
C404        C  0.49875605  0.37501073  0.85440113    -0.30500
H405        H  0.44667806  0.36435835  0.86293615     0.13700
H406        H  0.02593621  0.37167385  0.86424405     0.14300
C407        C  0.00561877  0.37500437  0.64037361    -0.15300
C408        C  0.50307234  0.36054120  0.62532367    -0.30500
H409        H  0.45013975  0.36794659  0.63435292     0.13700
H410        H  0.95337167  0.36707892  0.63236619     0.14300
C411        C  0.99105204  0.13132804  0.64351084    -0.15300
C412        C  0.01683059  0.14843362  0.62882665    -0.30500
H413        H  0.46632098  0.13815089  0.63629637     0.13700
H414        H  0.04304653  0.14333613  0.63665677     0.14300
C415        C  0.99040492  0.60672861  0.17222034     0.43600
N416        N  0.48192421  0.57119286  0.21238585     0.02500
C417        C  0.08578861  0.97626402  0.31551865    -0.05400
H418        H  0.09290266  0.94295836  0.18621850     0.07900
C419        C  0.47615504  0.91232340  0.18170684    -0.05800
Co420      Co  0.04023651  0.54067262  0.24666951     0.74200
N421        N  0.06790683  0.98359355  0.21438616    -0.25000
Co422      Co  0.04112192  0.95712731  0.25042912     0.74100
C423        C  0.00589154  0.89879893  0.16792530     0.43700
N424        N  0.42874041  0.98688165  0.20662790     0.02100
N425        N  0.01650113  0.93052885  0.21117124     0.02200
N426        N  0.08692207  0.51992169  0.30727517    -0.45800
H427        H  0.04854869  0.59625736  0.17851035     0.07900
N428        N  0.06544893  0.51243719  0.20705155     0.02500
N429        N  0.01229636  0.93094511  0.28588116     0.02200
C430        C  0.49754677  0.89632423  0.32633767     0.43800
N431        N  0.42941568  0.51858665  0.20848407    -0.24400
C432        C  0.02568641  0.58469520  0.31282985    -0.05300
N433        N  0.46826599  0.59179173  0.18902364    -0.45500
N434        N  0.02476061  0.91180149  0.31091016    -0.45700
C435        C  0.49235265  0.59789752  0.32998994     0.43600
N436        N  0.06662513  0.50974683  0.28238112     0.02400
N437        N  0.42532825  0.51386122  0.28287029    -0.24400
N438        N  0.01211123  0.57078527  0.21146860    -0.24900
N439        N  0.42378183  0.98156323  0.28147665     0.02100
H440        H  0.39625030  0.54959215  0.31410252     0.08000
H441        H  0.44053915  0.90025588  0.31124230     0.08000
N442        N  0.06592638  0.98545460  0.28875628    -0.25000
N443        N  0.48439911  0.93133174  0.20871292    -0.24600
N444        N  0.47998133  0.56702892  0.28695671     0.02500
C445        C  0.09866853  0.49468521  0.16619971     0.43900
C446        C  0.41177430  0.53235008  0.18253388    -0.08200
N447        N  0.47872472  0.92873455  0.28327947    -0.24600
H448        H  0.45036793  0.90756905  0.17350806     0.08000
N449        N  0.08788508  0.52308023  0.18352063    -0.45800
H450        H  0.40704484  0.55935371  0.17809166     0.08000
C451        C  0.38924388  0.99111490  0.32353581     0.43700
C452        C  0.02227330  0.59168628  0.18593711    -0.05300
Co453      Co  0.45376649  0.54315956  0.24796116     0.73800
N454        N  0.41113882  0.97758829  0.17941251    -0.45500
C455        C  0.09697723  0.00880510  0.33021991     0.44000
N456        N  0.46612880  0.58525040  0.31224680    -0.45500
Co457      Co  0.45324378  0.95649553  0.24460571     0.73900
C458        C  0.46693729  0.90733590  0.30754606    -0.05800
C459        C  0.08783532  0.96995751  0.19012236    -0.05400
N460        N  0.01389206  0.56672889  0.28641498    -0.24900
N461        N  0.03129154  0.91088875  0.18737591    -0.45700
H462        H  0.09241442  0.95030397  0.32299364     0.08000
C463        C  0.40283051  0.52345376  0.30744736    -0.05800
Cl464      Cl  0.99333586  0.49931682  0.24674349    -0.48800
C465        C  0.40040549  0.50331594  0.16321690     0.43700
H466        H  0.05236444  0.58883937  0.31818975     0.07900
N467        N  0.40382137  0.96632736  0.30425385    -0.45500
C468        C  0.11017678  0.68376743  0.49530741     0.43600
N469        N  0.07500494  0.72333861  0.48023979     0.02500
C470        C  0.46449633  0.81597977  0.08242036    -0.05400
H471        H  0.44911991  0.68344472  0.09569606     0.07900
C472        C  0.41640022  0.67592589  0.47297403    -0.05800
Co473      Co  0.04171671  0.75602369  0.04350951     0.74200
N474        N  0.48429835  0.71635754  0.06878364    -0.25000
Co475      Co  0.45484939  0.75146209  0.03922227     0.74100
C476        C  0.40388041  0.66201857  0.50547020     0.43700
N477        N  0.48886456  0.70559163  0.42820758     0.02100
N478        N  0.43166224  0.71182374  0.01384856     0.02200
N479        N  0.01759962  0.81816098  0.08640684    -0.45800
H480        H  0.09924222  0.68904106  0.05894863     0.07900
N481        N  0.01585368  0.71838919  0.07022809     0.02500
N482        N  0.42707228  0.78670207  0.00827874     0.02200
C483        C  0.38582379  0.81872108  0.48616523     0.43800
N484        N  0.02420940  0.71155465  0.42742850    -0.24400
C485        C  0.08363775  0.82111769  0.02535695    -0.05300
N486        N  0.09597370  0.69929372  0.46810731    -0.45500
N487        N  0.40563437  0.81186810  0.01779919    -0.45700
C488        C  0.09168531  0.84172439  0.48628380     0.43600
N489        N  0.00879999  0.79273996  0.06618192     0.02400
N490        N  0.01118962  0.78490238  0.42177987    -0.24400
N491        N  0.07352691  0.71893946  0.01969220    -0.24900
N492        N  0.47713619  0.77915152  0.42120364     0.02100
H493        H  0.04325709  0.82163381  0.39682154     0.08000
H494        H  0.39684512  0.80155673  0.43113863     0.08000
N495        N  0.47893348  0.79090252  0.06378726    -0.25000
N496        N  0.43326076  0.70395745  0.48161556    -0.24600
N497        N  0.06341587  0.79686955  0.47522601     0.02500
C498        C  0.00474913  0.67656223  0.10393029     0.43900
C499        C  0.04066942  0.68721574  0.40926008    -0.05800
N500        N  0.42274190  0.77713805  0.47350664    -0.24600
H501        H  0.41213023  0.66750850  0.44711344     0.08000
N502        N  0.03017336  0.69558600  0.09107540    -0.45800
H503        H  0.06786851  0.68600414  0.40367314     0.08000
C504        C  0.48454609  0.82167242  0.38766111     0.43700
C505        C  0.09469237  0.69432661  0.03217307    -0.05300
Co506      Co  0.04392072  0.75443031  0.45070376     0.73800
N507        N  0.48085873  0.67860989  0.40981748    -0.45500
C508        C  0.49303853  0.83401854  0.09656092     0.44000
N509        N  0.08071814  0.82193185  0.46067151    -0.45500
Co510      Co  0.45507621  0.74110492  0.45067822     0.73900
C511        C  0.40112046  0.79927055  0.45834510    -0.05800
C512        C  0.47511688  0.69081126  0.09006614    -0.05400
N513        N  0.06661403  0.79357616  0.01531965    -0.24900
N514        N  0.41389890  0.68720009  0.02853758    -0.45700
H515        H  0.43731860  0.81989369  0.08695703     0.08000
C516        C  0.01809063  0.81147172  0.40139492    -0.05800
Cl517      Cl  0.99935700  0.75114231  0.49491766    -0.48800
C518        C  0.01386528  0.66500432  0.39786086     0.43700
H519        H  0.08711562  0.82889381  0.05155814     0.07900
N520        N  0.46070458  0.80084550  0.40071239    -0.45500
C521        C  0.33163840  0.99097084  0.09851647     0.43600
N522        N  0.29558807  0.50588182  0.06498956     0.02500
C523        C  0.18057374  0.91534290  0.47332267    -0.05400
H524        H  0.31351264  0.90181158  0.44599983     0.07900
C525        C  0.30058434  0.53922929  0.40309132    -0.05800
Co526      Co  0.24667359  0.95613136  0.04555959     0.74200
N527        N  0.28230443  0.92911281  0.48331628    -0.25000
Co528      Co  0.24570568  0.95837950  0.45673212     0.74100
C529        C  0.32216945  0.00567641  0.39552057     0.43700
N530        N  0.28560876  0.57307231  0.48096836     0.02100
N531        N  0.28286781  0.98704097  0.42945982     0.02200
N532        N  0.18272220  0.91559032  0.03472767    -0.45800
H533        H  0.31301684  0.93655607  0.09246710     0.07900
N534        N  0.28205807  0.92738966  0.01762447     0.02500
N535        N  0.20803910  0.98669652  0.43227629     0.02200
C536        C  0.16111113  0.51484812  0.39604966     0.43800
N537        N  0.29568033  0.56541251  0.01537586    -0.24400
C538        C  0.18599410  0.97924034  0.09451875    -0.05300
N539        N  0.32282385  0.51293713  0.08325892    -0.45500
N540        N  0.18463412  0.97276452  0.41307780    -0.45700
C541        C  0.17849783  0.50834667  0.10888349     0.43600
N542        N  0.20798159  0.93258208  0.02022827     0.02400
N543        N  0.22241737  0.57431773  0.02722650    -0.24400
N544        N  0.28620430  0.97922544  0.06915385    -0.24900
N545        N  0.21123071  0.57737612  0.49096162     0.02100
H546        H  0.19926859  0.59770797  0.07201788     0.08000
H547        H  0.17391161  0.57062043  0.40809602     0.08000
N548        N  0.20736275  0.93291526  0.48440857    -0.25000
N549        N  0.27684878  0.52594517  0.42372367    -0.24600
N550        N  0.22184914  0.51701165  0.07582835     0.02500
C551        C  0.32111558  0.89191153  0.50388464     0.43900
C552        C  0.32391787  0.58260386  0.02340492    -0.05800
N553        N  0.20296376  0.52911210  0.43134931    -0.24600
H554        H  0.30598623  0.56609647  0.40027894     0.08000
N555        N  0.30575890  0.90716737  0.03136532    -0.45800
H556        H  0.33357052  0.58587395  0.04895938     0.08000
C557        C  0.17426486  0.61147965  0.51406414     0.43700
C558        C  0.31073104  0.96368068  0.08721058    -0.05300
Co559      Co  0.25935459  0.54099500  0.04637059     0.73800
N560        N  0.30993815  0.59109550  0.46603773    -0.45500
C561        C  0.16252548  0.90475178  0.50449869     0.44000
N562        N  0.19984141  0.53243886  0.09711099    -0.45500
Co563      Co  0.24378834  0.55192084  0.45650355     0.73900
C564        C  0.17795452  0.54347415  0.41229507    -0.05800
C565        C  0.30716745  0.90725924  0.47244519    -0.05400
N566        N  0.21234224  0.98693096  0.07375599    -0.24900
N567        N  0.30769508  0.97666456  0.40788006    -0.45700
H568        H  0.17457426  0.91069622  0.44685476     0.08000
C569        C  0.20062428  0.59484669  0.04453098    -0.05800
Cl570      Cl  0.24732206  0.50366584  0.49667963    -0.48800
C571        C  0.33185393  0.59949234  0.49081229     0.43700
H572        H  0.17730927  0.95372330  0.10004240     0.07900
N573        N  0.18628178  0.59964975  0.48367302    -0.45500
C574        C  0.34707947  0.86429161  0.50840218    -0.15300
C575        C  0.36074548  0.84712987  0.48193979    -0.30500
H576        H  0.35758478  0.86011753  0.03658253     0.13700
H577        H  0.35312472  0.85375207  0.45606238     0.14300
C578        C  0.37835040  0.63539043  0.51107874    -0.15300
C579        C  0.36087462  0.62224025  0.48515012    -0.30500
H580        H  0.37294983  0.63237012  0.03594163     0.13700
H581        H  0.36641887  0.62997275  0.45898657     0.14300
C582        C  0.11777073  0.86803075  0.48159420    -0.15300
C583        C  0.13301872  0.88229901  0.50835202    -0.30500
H584        H  0.12892671  0.86951816  0.96234736     0.13700
H585        H  0.12485996  0.87613311  0.53425843     0.14300
C586        C  0.13452519  0.65491371  0.49189973    -0.15300
C587        C  0.14866962  0.63915349  0.51879083    -0.30500
H588        H  0.14132062  0.64672955  0.46612793     0.13700
H589        H  0.14676205  0.64492020  0.05018700     0.14300
C590        C  0.34934729  0.00975100  0.36923203    -0.15300
C591        C  0.36376193  0.98430961  0.35108608    -0.30500
H592        H  0.35694554  0.03579454  0.36389590     0.13700
H593        H  0.35270904  0.46043364  0.35163386     0.14300
C594        C  0.13538066  0.51714539  0.36811038    -0.15300
C595        C  0.12139429  0.01606350  0.35782537    -0.30500
H596        H  0.13380665  0.96491682  0.36881643     0.13700
H597        H  0.13249329  0.46416045  0.36012435     0.14300
C598        C  0.12691019  0.49098831  0.14080239    -0.15300
C599        C  0.14912907  0.51539581  0.13254817    -0.30500
H600        H  0.13043193  0.96917612  0.13472014     0.13700
H601        H  0.14608730  0.54071097  0.14357621     0.14300
C602        C  0.37727054  0.50560865  0.13384164    -0.15300
C603        C  0.35966621  0.98581730  0.12279405    -0.30500
H604        H  0.36991581  0.53113312  0.12508998     0.13700
H605        H  0.36554739  0.95989715  0.13144222     0.14300
C606        C  0.48798351  0.62264541  0.35816690    -0.15300
C607        C  0.01825556  0.63725886  0.37275986    -0.30500
H608        H  0.46208338  0.62974505  0.36625265     0.13700
H609        H  0.04404670  0.63086662  0.36384780     0.14300
C610        C  0.47721469  0.84942979  0.36314211    -0.15300
C611        C  0.50195610  0.87036541  0.35309832    -0.30500
H612        H  0.45162335  0.85210509  0.35276765     0.13700
H613        H  0.02798836  0.86738023  0.36263075     0.14300
C614        C  0.01093895  0.87350428  0.14006610    -0.15300
C615        C  0.48927560  0.86126531  0.12249734    -0.30500
H616        H  0.54133224  0.86511488  0.13504867     0.13700
H617        H  0.95847648  0.86957990  0.12921661     0.14300
C618        C  0.98488724  0.63280750  0.14513621    -0.15300
C619        C  0.01058708  0.64907779  0.12954869    -0.30500
H620        H  0.46216410  0.63845420  0.13808671     0.13700
H621        H  0.03687099  0.64289386  0.13643194     0.14300
C622        C  0.00028411  0.60613440  0.66668811     0.43600
N623        N  0.48500252  0.57469489  0.70976618     0.02500
C624        C  0.07854678  0.97232140  0.82134245    -0.05400
H625        H  0.09328955  0.93816910  0.69371412     0.07900
C626        C  0.47204973  0.91472724  0.67909862    -0.05800
Co627      Co  0.04562982  0.54349446  0.74657804     0.74200
N628        N  0.06712349  0.97943782  0.72004468    -0.25000
Co629      Co  0.03649122  0.95382443  0.75437347     0.74100
C630        C  0.00515581  0.89812224  0.66837698     0.43700
N631        N  0.42783243  0.98944346  0.70341939     0.02100
N632        N  0.01392198  0.92826888  0.71317163     0.02200
N633        N  0.08867692  0.52553424  0.81092763    -0.45800
H634        H  0.05805231  0.59692032  0.67672215     0.07900
N635        N  0.07171562  0.51263954  0.71007591     0.02500
N636        N  0.00308632  0.92832595  0.78773674     0.02200
C637        C  0.48147102  0.89416881  0.82323012     0.43800
N638        N  0.42521580  0.52989178  0.71509264    -0.24400
C639        C  0.02883061  0.59068028  0.80941878    -0.05300
N640        N  0.47125399  0.59581380  0.68700836    -0.45500
N641        N  0.01101351  0.90727301  0.81331118    -0.45700
C642        C  0.51632506  0.60281520  0.82374194     0.43600
N643        N  0.06945025  0.51450933  0.78556242     0.02400
N644        N  0.43099095  0.52947972  0.78964329    -0.24400
N645        N  0.02003455  0.57181686  0.70824774    -0.24900
N646        N  0.41969286  0.98337700  0.77716870     0.02100
H647        H  0.41049148  0.57108339  0.82016281     0.08000
H648        H  0.42745629  0.90351504  0.80263785     0.08000
N649        N  0.05959209  0.98183876  0.79401380    -0.25000
N650        N  0.48058955  0.93229520  0.70683902    -0.24600
N651        N  0.49265199  0.57428163  0.78418136     0.02500
C652        C  0.10420517  0.49207383  0.67024640     0.43900
C653        C  0.40671147  0.54394771  0.68964867    -0.08200
N654        N  0.47072923  0.92908208  0.78020762    -0.24600
H655        H  0.44629881  0.91217346  0.66976282     0.08000
N656        N  0.09347886  0.52168356  0.68535551    -0.45800
H657        H  0.40531074  0.57082827  0.68304990     0.08000
C658        C  0.38550620  0.99177849  0.81941232     0.43700
C659        C  0.03148747  0.59201402  0.68264830    -0.05300
Co660      Co  0.45808747  0.55271120  0.74996379     0.73800
N661        N  0.41030461  0.98035983  0.67626034    -0.45500
C662        C  0.09053619  0.00459980  0.83596370     0.44000
N663        N  0.48564854  0.59452706  0.81059504    -0.45500
Co664      Co  0.44936324  0.95821985  0.74136223     0.73900
C665        C  0.45458564  0.90844885  0.80213832    -0.05800
C666        C  0.08855549  0.96527763  0.69720839    -0.05400
N667        N  0.01803132  0.57207042  0.78310478    -0.24900
N668        N  0.02959984  0.90848603  0.69001840    -0.45700
H669        H  0.08465179  0.94625820  0.82886635     0.08000
C670        C  0.41292150  0.54394088  0.81529708    -0.05800
Cl671      Cl  0.99811097  0.50257249  0.74680812    -0.48800
C672        C  0.39054529  0.51523296  0.67313510     0.43700
H673        H  0.05526646  0.59414500  0.81624731     0.07900
N674        N  0.39917458  0.96771511  0.79896209    -0.45500
C675        C  0.10944031  0.67762403  0.00163650     0.43600
N676        N  0.07516442  0.71764748  0.98601639     0.02500
C677        C  0.45778347  0.81727503  0.58063909    -0.05400
H678        H  0.45059019  0.68203872  0.59356877     0.07900
C679        C  0.41375774  0.68305248  0.97085355    -0.05800
Co680      Co  0.04229015  0.76026952  0.53918554     0.74200
N681        N  0.48358225  0.71827275  0.56869687    -0.25000
Co682      Co  0.45173650  0.75007636  0.53888068     0.74100
C683        C  0.40190084  0.66781008  0.00320911     0.43700
N684        N  0.48678879  0.70955307  0.92718279     0.02100
N685        N  0.43171944  0.70742486  0.51515756     0.02200
N686        N  0.01778162  0.82138477  0.58307848    -0.45800
H687        H  0.10113605  0.69520389  0.55268958     0.07900
N688        N  0.02037639  0.72167063  0.56822517     0.02500
N689        N  0.42130069  0.78162928  0.50695612     0.02200
C690        C  0.39421659  0.82645778  0.98831652     0.43800
N691        N  0.02733110  0.71082821  0.92965161    -0.24400
C692        C  0.08001823  0.82629410  0.51838999    -0.05300
N693        N  0.09622641  0.69357166  0.97428027    -0.45500
N694        N  0.39926461  0.80653513  0.51579969    -0.45700
C695        C  0.09676685  0.83610842  0.99350940     0.43600
N696        N  0.00908859  0.79555021  0.56334820     0.02400
N697        N  0.02100687  0.78436896  0.92528351    -0.24400
N698        N  0.07439392  0.72471940  0.51395830    -0.24900
N699        N  0.48506170  0.78429355  0.92213445     0.02100
H700        H  0.05965047  0.81667804  0.90360398     0.08000
H701        H  0.40611994  0.81183605  0.93281225     0.08000
N702        N  0.47305537  0.79237847  0.56218441    -0.25000
N703        N  0.43205572  0.71019222  0.98010312    -0.24600
N704        N  0.06879225  0.79151360  0.98171004     0.02500
C705        C  0.01290825  0.67900353  0.60188405     0.43900
C706        C  0.04323975  0.68615973  0.91155130    -0.05800
N707        N  0.42947375  0.78437624  0.97466949    -0.24600
H708        H  0.40905516  0.67531207  0.94485800     0.08000
N709        N  0.03685503  0.69928649  0.58800820    -0.45800
H710        H  0.07062261  0.68308028  0.90783771     0.08000
C711        C  0.50169026  0.82523453  0.88969908     0.43700
C712        C  0.09615328  0.70051854  0.52600533    -0.05300
Co713      Co  0.04837050  0.75109872  0.95549819     0.73800
N714        N  0.47409625  0.68488861  0.90870501    -0.45500
C715        C  0.48584977  0.83702368  0.59388416     0.44000
N716        N  0.08676941  0.81627008  0.96772530    -0.45500
Co717      Co  0.45781440  0.74713719  0.95054667     0.73900
C718        C  0.40977427  0.80834074  0.96000255    -0.05800
C719        C  0.47599610  0.69159070  0.58893715    -0.05400
N720        N  0.06304319  0.79864638  0.50893227    -0.24900
N721        N  0.41417676  0.68295855  0.53039969    -0.45700
H722        H  0.43059418  0.81988282  0.58587899     0.08000
C723        C  0.03309647  0.80973681  0.90613013    -0.05800
Cl724      Cl  0.00083821  0.75036337  0.99643660    -0.48800
C725        C  0.01570995  0.66717661  0.89672754     0.43700
H726        H  0.08509111  0.83334616  0.54450919     0.07900
N727        N  0.47342180  0.80903424  0.90148953    -0.45500
C728        C  0.32975621  0.99074760  0.59885988     0.43600
N729        N  0.29310119  0.51131389  0.56480717     0.02500
C730        C  0.18185638  0.91201175  0.97694314    -0.05400
H731        H  0.31580909  0.90136280  0.94719420     0.07900
C732        C  0.30460035  0.53016312  0.90581818    -0.05800
Co733      Co  0.24476870  0.95574245  0.54533918     0.74200
N734        N  0.28336174  0.92803410  0.98385834    -0.25000
Co735      Co  0.24579435  0.95552465  0.95680761     0.74100
C736        C  0.32050784  0.00277987  0.89291588     0.43700
N737        N  0.29062584  0.56878444  0.98218096     0.02100
N738        N  0.28207711  0.98372366  0.92751214     0.02200
N739        N  0.18008391  0.91651289  0.53123711    -0.45800
H740        H  0.31260597  0.93581611  0.59159106     0.07900
N741        N  0.28067361  0.92747905  0.51703121     0.02500
N742        N  0.20704311  0.98264626  0.93231750     0.02200
C743        C  0.16037786  0.51922152  0.90151149     0.43800
N744        N  0.29027717  0.56924020  0.51416692    -0.24400
C745        C  0.18395833  0.97678973  0.59517798    -0.05300
N746        N  0.31741563  0.52051857  0.58606976    -0.45500
N747        N  0.18263366  0.96823350  0.91471397    -0.45700
C748        C  0.17734676  0.50656448  0.60619455     0.43600
N749        N  0.20624641  0.93330636  0.51818346     0.02400
N750        N  0.21648055  0.57456487  0.52415489    -0.24400
N751        N  0.28396668  0.97844368  0.57021798    -0.24900
N752        N  0.21671594  0.57747858  0.99411394     0.02100
H753        H  0.19284552  0.59883625  0.56822491     0.08000
H754        H  0.17807817  0.57374184  0.91233651     0.08000
N755        N  0.20841163  0.93072877  0.98651021    -0.25000
N756        N  0.27834348  0.52068935  0.92589095    -0.24600
N757        N  0.21916276  0.51737693  0.57246102     0.02500
C758        C  0.32397569  0.89357930  0.00536041     0.43900
C759        C  0.31884763  0.58520969  0.52292149    -0.05800
N760        N  0.20440723  0.53018799  0.93503972    -0.24600
H761        H  0.31375551  0.55591128  0.90306666     0.08000
N762        N  0.30333717  0.90565202  0.53023029    -0.45800
H763        H  0.32875627  0.58692238  0.54854793     0.08000
C764        C  0.18009471  0.61125500  0.01835318     0.43700
C765        C  0.30925656  0.96303723  0.58743567    -0.05300
Co766      Co  0.25509212  0.54346566  0.54420010     0.73800
N767        N  0.31400770  0.58760423  0.96671746    -0.45500
C768        C  0.16488031  0.90224969  0.00905605     0.44000
N769        N  0.19669538  0.53176260  0.59376569    -0.45500
Co770      Co  0.24727622  0.54988668  0.95890377     0.73900
C771        C  0.18003514  0.54643526  0.91669140    -0.05800
C772        C  0.30917548  0.90712234  0.97350537    -0.05400
N773        N  0.20989684  0.98550424  0.57421509    -0.24900
N774        N  0.30698340  0.97349311  0.90592357    -0.45700
H775        H  0.17551258  0.90592567  0.95087393     0.08000
C776        C  0.19418717  0.59512419  0.54084186    -0.05800
Cl777      Cl  0.24768797  0.50171797  0.99922997    -0.48800
C778        C  0.33607410  0.59719058  0.99085087     0.43700
H779        H  0.17588344  0.95097388  0.60025565     0.07900
N780        N  0.19140841  0.59962134  0.98756453    -0.45500
C781        C  0.35151818  0.86793940  0.01058708    -0.15300
C782        C  0.36818174  0.85369965  0.98424401    -0.30500
H783        H  0.35436724  0.85733346  0.53431485     0.13700
H784        H  0.36195214  0.86149030  0.95830193     0.14300
C785        C  0.37851756  0.63909913  0.00949450    -0.15300
C786        C  0.36263364  0.62293317  0.98426700    -0.30500
H787        H  0.37204981  0.62850567  0.53731790     0.13700
H788        H  0.36751519  0.63027863  0.95785073     0.14300
C789        C  0.12150489  0.86340038  0.98849029    -0.15300
C790        C  0.13664375  0.87859159  0.01461276    -0.30500
H791        H  0.12603468  0.87405510  0.45567396     0.13700
H792        H  0.12948323  0.87232315  0.04079825     0.14300
C793        C  0.13546491  0.65033480  0.99793176    -0.15300
C794        C  0.15249967  0.63675447  0.02419831    -0.30500
H795        H  0.14166596  0.64205064  0.97204978     0.13700
H796        H  0.14216039  0.64718247  0.54465045     0.14300
C797        C  0.34812215  0.00774903  0.86753451    -0.15300
C798        C  0.36052382  0.98362464  0.84677881    -0.30500
H799        H  0.35697105  0.03371894  0.86437361     0.13700
H800        H  0.36221574  0.54475920  0.86750951     0.14300
C801        C  0.13505334  0.52300458  0.87363096    -0.15300
C802        C  0.11606901  0.01132602  0.86274426    -0.30500
H803        H  0.12931859  0.96006557  0.87262828     0.13700
H804        H  0.12905246  0.47016833  0.86779035     0.14300
C805        C  0.13060094  0.48727485  0.64345141    -0.15300
C806        C  0.14944971  0.51268142  0.63128452    -0.30500
H807        H  0.13507705  0.96368501  0.64395640     0.13700
H808        H  0.14486361  0.53858320  0.64040542     0.14300
C809        C  0.36796506  0.51702841  0.64287143    -0.15300
C810        C  0.35877158  0.98670930  0.62179729    -0.30500
H811        H  0.36058680  0.54226322  0.63337291     0.13700
H812        H  0.36598686  0.96104449  0.63025812     0.14300
C813        C  0.52221639  0.62663397  0.85189525    -0.15300
C814        C  0.01996487  0.64082109  0.87035954    -0.30500
H815        H  0.54840945  0.63323914  0.85749918     0.13700
H816        H  0.04585377  0.63261003  0.86341146     0.14300
C817        C  0.50388754  0.85373840  0.86531742    -0.15300
C818        C  0.47695110  0.86739878  0.84935602    -0.30500
H819        H  0.52932121  0.86308449  0.85951462     0.13700
H820        H  0.95197549  0.85674411  0.85544869     0.14300
C821        C  0.01085034  0.87367408  0.63990078    -0.15300
C822        C  0.48259475  0.86385101  0.62016449    -0.30500
H823        H  0.53500989  0.86541256  0.63252220     0.13700
H824        H  0.95858679  0.87081304  0.62771165     0.14300
C825        C  0.99534422  0.63221856  0.63977057    -0.15300
C826        C  0.02046694  0.65103464  0.62648867    -0.30500
H827        H  0.46481169  0.63867594  0.63360315     0.13700
H828        H  0.04674453  0.64661449  0.63444809     0.14300
C829        C  0.49354615  0.10517796  0.17061272     0.43600
N830        N  0.97848633  0.07353361  0.21308598     0.02500
C831        C  0.58521102  0.46626216  0.31216055    -0.05400
H832        H  0.59540521  0.44111903  0.18212087     0.07900
C833        C  0.95713385  0.41486493  0.18304029    -0.05800
Co834      Co  0.54031206  0.04523947  0.25020617     0.74200
N835        N  0.57037640  0.48094173  0.21147389    -0.25000
Co836      Co  0.54257313  0.45363478  0.24688315     0.74100
C837        C  0.50614769  0.39853509  0.16414435     0.43700
N838        N  0.92087365  0.48921860  0.21090183     0.02100
N839        N  0.51739959  0.42911051  0.20766253     0.02200
N840        N  0.58250445  0.03302049  0.31334310    -0.45800
H841        H  0.55133710  0.09685320  0.18043943     0.07900
N842        N  0.56963770  0.01652684  0.21386490     0.02500
N843        N  0.51370426  0.42680005  0.28221743     0.02200
C844        C  0.99461484  0.39572579  0.32391976     0.43800
N845        N  0.92708478  0.02092572  0.21097879    -0.24400
C846        C  0.51960962  0.09141823  0.31305157    -0.05300
N847        N  0.96520374  0.09318472  0.18867287    -0.45500
N848        N  0.52624286  0.40751059  0.30713431    -0.45700
C849        C  0.98839723  0.10314992  0.32946330     0.43600
N850        N  0.56502746  0.01859991  0.28879194     0.02400
N851        N  0.92362792  0.01528010  0.28524784    -0.24400
N852        N  0.51371890  0.07195661  0.21241701    -0.24900
N853        N  0.92227290  0.48448409  0.28547842     0.02100
H854        H  0.89638170  0.04917050  0.32006339     0.08000
H855        H  0.93674779  0.40597683  0.31629279     0.08000
N856        N  0.56739247  0.47915694  0.28578999    -0.25000
N857        N  0.97143527  0.43238583  0.20799521    -0.24600
N858        N  0.97663696  0.07031895  0.28784347     0.02500
C859        C  0.60380294  0.99757542  0.17463164     0.43900
C860        C  0.90935529  0.03573793  0.18586967    -0.08200
N861        N  0.97399183  0.42865987  0.28218783    -0.24600
H862        H  0.92996158  0.41199504  0.17931128     0.08000
N863        N  0.59061771  0.02678793  0.18886776    -0.45800
H864        H  0.90440871  0.06287629  0.18269011     0.08000
C865        C  0.88832077  0.49655085  0.32703323     0.43700
C866        C  0.52484444  0.09182524  0.18657208    -0.05300
Co867      Co  0.95091905  0.04548227  0.24971232     0.73800
N868        N  0.90229302  0.47923487  0.18472950    -0.45500
C869        C  0.59750003  0.49592896  0.33014681     0.44000
N870        N  0.96247431  0.08895572  0.31262472    -0.45500
Co871      Co  0.94673895  0.45826799  0.24664056     0.73900
C872        C  0.96314780  0.40953680  0.30869428    -0.05800
C873        C  0.59073304  0.46801143  0.18702394    -0.05400
N874        N  0.51027330  0.07137911  0.28721233    -0.24900
N875        N  0.53187894  0.41036729  0.18310075    -0.45700
H876        H  0.58955300  0.43939493  0.31769210     0.08000
C877        C  0.90269437  0.02347246  0.31170150    -0.05800
Cl878      Cl  0.49670885  0.00087160  0.24892278    -0.48800
C879        C  0.89831669  0.00777950  0.16547067     0.43700
H880        H  0.54565968  0.09771117  0.31906133     0.07900
N881        N  0.90167497  0.47065697  0.30850010    -0.45500
C882        C  0.60686775  0.17812167  0.49139733     0.43600
N883        N  0.57249556  0.21945116  0.47878018     0.02500
C884        C  0.97153887  0.31351824  0.08789901    -0.05400
H885        H  0.95051925  0.18127540  0.09508321     0.07900
C886        C  0.91056886  0.17946560  0.47383915    -0.05800
Co887      Co  0.54002003  0.25554086  0.03993809     0.74200
N888        N  0.98573083  0.21303691  0.06734749    -0.25000
Co889      Co  0.95486312  0.24933261  0.04263483     0.74100
C890        C  0.89950337  0.16341277  0.50601290     0.43700
N891        N  0.98373739  0.21136125  0.42833907     0.02100
N892        N  0.92940371  0.21053080  0.01692122     0.02200
N893        N  0.51680426  0.31587683  0.08564703    -0.45800
H894        H  0.59784755  0.18963573  0.04816009     0.07900
N895        N  0.51780069  0.21514332  0.06689509     0.02500
N896        N  0.92447424  0.28533966  0.01639528     0.02200
C897        C  0.88318764  0.32095915  0.50081100     0.43800
N898        N  0.51770018  0.21403039  0.42871744    -0.24400
C899        C  0.57936169  0.32269975  0.02229440    -0.05300
N900        N  0.59216214  0.19501493  0.46511955    -0.45500
N901        N  0.90351278  0.30887753  0.02997791    -0.45700
C902        C  0.59625500  0.33718293  0.48714212     0.43600
N903        N  0.50771392  0.28960515  0.06675680     0.02400
N904        N  0.50918807  0.28775119  0.42620851    -0.24400
N905        N  0.57068701  0.22128060  0.01158573    -0.24900
N906        N  0.97241058  0.28563136  0.42673921     0.02100
H907        H  0.54265101  0.32138628  0.39870724     0.08000
H908        H  0.89152597  0.31011584  0.44331627     0.08000
N909        N  0.98203694  0.28777177  0.06739982    -0.25000
N910        N  0.92924846  0.20614411  0.48338930    -0.24600
N911        N  0.56535305  0.29388668  0.47673403     0.02500
C912        C  0.50920176  0.17220949  0.10015144     0.43900
C913        C  0.53236662  0.18974016  0.40934857    -0.05800
N914        N  0.91921884  0.28046208  0.48123121    -0.24600
H915        H  0.90408268  0.17334918  0.44780650     0.08000
N916        N  0.53372311  0.19217111  0.08655259    -0.45800
H917        H  0.55936669  0.18729883  0.40308744     0.08000
C918        C  0.98007208  0.32884391  0.39387896     0.43700
C919        C  0.59239529  0.19627112  0.02185798    -0.05300
Co920      Co  0.54152926  0.25398357  0.45217502     0.73800
N921        N  0.97542361  0.18507228  0.40901265    -0.45500
C922        C  0.00325396  0.32980934  0.09845243     0.44000
N923        N  0.58260647  0.31881021  0.46183325    -0.45500
Co924      Co  0.95064378  0.24564734  0.45432753     0.73900
C925        C  0.89704963  0.30465086  0.46986160    -0.05800
C926        C  0.97655912  0.18734691  0.08807162    -0.05400
N927        N  0.56144113  0.29578597  0.01195296    -0.24900
N928        N  0.91108823  0.18602184  0.03122096    -0.45700
H929        H  0.94525767  0.31932447  0.09520277     0.08000
C930        C  0.51698177  0.31360296  0.40519813    -0.05800
Cl931      Cl  0.49885248  0.25149099  0.49833669    -0.48800
C932        C  0.50421165  0.16973395  0.39773327     0.43700
H933        H  0.58548339  0.32841936  0.04851455     0.07900
N934        N  0.95600226  0.30825280  0.40715228    -0.45500
C935        C  0.83443311  0.48597120  0.09323976     0.43600
N936        N  0.79101933  0.01259702  0.06786049     0.02500
C937        C  0.67697988  0.42089034  0.46970232    -0.05400
H938        H  0.80368569  0.41059015  0.42622053     0.07900
C939        C  0.80286122  0.03230607  0.40933669    -0.05800
Co940      Co  0.74681443  0.45492847  0.03781460     0.74200
N941        N  0.77863318  0.43444153  0.46985484    -0.25000
Co942      Co  0.73977947  0.46678603  0.45031740     0.74100
C943        C  0.81496211  0.51531480  0.38996992     0.43700
N944        N  0.78337333  0.06929967  0.48328902     0.02100
N945        N  0.77548940  0.49641829  0.42303702     0.02200
N946        N  0.67948299  0.41758333  0.02977344    -0.45800
H947        H  0.81499326  0.43158922  0.08539886     0.07900
N948        N  0.77761517  0.42538625  0.00476029     0.02500
N949        N  0.70058240  0.49945466  0.43204822     0.02200
C950        C  0.66366132  0.99510812  0.40230223     0.43800
N951        N  0.78780400  0.06950920  0.01436807    -0.24400
C952        C  0.69025604  0.47877958  0.09112800    -0.05300
N953        N  0.81810064  0.02111912  0.08597690    -0.45500
N954        N  0.67518194  0.49057340  0.41197792    -0.45700
C955        C  0.67429183  0.01091689  0.10772436     0.43600
N956        N  0.70360155  0.43559440  0.01440860     0.02400
N957        N  0.71365608  0.07301324  0.02214954    -0.24400
N958        N  0.79002230  0.47473705  0.06066582    -0.24900
N959        N  0.70873203  0.07077706  0.49045276     0.02100
H960        H  0.68913377  0.09999497  0.06407120     0.08000
H961        H  0.66998545  0.05329410  0.41001570     0.08000
N962        N  0.70426486  0.43879152  0.47924249    -0.25000
N963        N  0.77952585  0.01823012  0.42969781    -0.24600
N964        N  0.71652691  0.01949954  0.07392840     0.02500
C965        C  0.81926048  0.39514630  0.48095091     0.43900
C966        C  0.81486321  0.08800949  0.02293014    -0.05800
N967        N  0.70522473  0.01709758  0.43385829    -0.24600
H968        H  0.80592313  0.05939224  0.40494989     0.08000
N969        N  0.80223789  0.40317648  0.01350327    -0.45800
H970        H  0.82372163  0.09185476  0.04868830     0.08000
C971        C  0.67082721  0.10561563  0.51074032     0.43700
C972        C  0.81392891  0.45867071  0.07962250    -0.05300
Co973      Co  0.75283119  0.04409410  0.04506483     0.73800
N974        N  0.80673027  0.08842144  0.46812192    -0.45500
C975        C  0.66391380  0.40553701  0.50148931     0.44000
N976        N  0.69407229  0.03521176  0.09429533    -0.45500
Co977      Co  0.74361046  0.04439109  0.45883650     0.73900
C978        C  0.67794329  0.02710276  0.41508371    -0.05800
C979        C  0.80124423  0.41357300  0.45364141    -0.05400
N980        N  0.71628427  0.48625512  0.06979608    -0.24900
N981        N  0.79940987  0.48635559  0.40054383    -0.45700
H982        H  0.66814685  0.41821461  0.44376889     0.08000
C983        C  0.69076607  0.09426533  0.03706489    -0.05800
Cl984      Cl  0.74708188  0.99867277  0.50175588    -0.48800
C985        C  0.82754830  0.09933292  0.49283694     0.43700
H986        H  0.68026114  0.45353926  0.09535515     0.07900
N987        N  0.68363936  0.09223732  0.48127671    -0.45500
C988        C  0.84479183  0.36671405  0.47704194    -0.15300
C989        C  0.85804833  0.34980468  0.50412869    -0.30500
H990        H  0.84961399  0.35575663  0.95492265     0.13700
H991        H  0.85032338  0.35735798  0.52983309     0.14300
C992        C  0.87391566  0.13662001  0.51183834    -0.15300
C993        C  0.85546178  0.12360140  0.48649471    -0.30500
H994        H  0.86654390  0.13337072  0.03685316     0.13700
H995        H  0.85995903  0.13184929  0.46028204     0.14300
C996        C  0.62055221  0.36517859  0.48112140    -0.15300
C997        C  0.63695745  0.38006148  0.50683902    -0.30500
H998        H  0.61878483  0.37640730  0.95930626     0.13700
H999        H  0.63177092  0.37218232  0.53303676     0.14300
C1000       C  0.63106884  0.14906511  0.48711882    -0.15300
C1001       C  0.64498244  0.13319877  0.51412204    -0.30500
H1002       H  0.63799464  0.14105657  0.46133552     0.13700
H1003       H  0.63734402  0.14351600  0.03830990     0.14300
C1004       C  0.84375191  0.51862706  0.36585350    -0.15300
C1005       C  0.86042560  0.49189157  0.35213124    -0.30500
H1006       H  0.85141113  0.54439298  0.35935523     0.13700
H1007       H  0.85769939  0.95684112  0.35665372     0.14300
C1008       C  0.63633371  0.98897525  0.37737961    -0.15300
C1009       C  0.62085713  0.49469280  0.35974928    -0.30500
H1010       H  0.62318240  0.54782676  0.36781184     0.13700
H1011       H  0.62528635  0.04055409  0.36643401     0.14300
C1012       C  0.62907434  0.99314690  0.14687467    -0.15300
C1013       C  0.64706286  0.01832040  0.13320291    -0.30500
H1014       H  0.63551862  0.46852731  0.13295214     0.13700
H1015       H  0.64260111  0.04450225  0.14153471     0.14300
C1016       C  0.87477060  0.01230378  0.13673964    -0.15300
C1017       C  0.85856002  0.48273820  0.12191091    -0.30500
H1018       H  0.86731768  0.03827526  0.12948961     0.13700
H1019       H  0.86576872  0.45727658  0.13092930     0.14300
C1020       C  0.98328156  0.12856946  0.35693274    -0.15300
C1021       C  0.50802100  0.14226906  0.37236544    -0.30500
H1022       H  0.95725517  0.13494801  0.36514837     0.13700
H1023       H  0.53403390  0.13499222  0.36491010     0.14300
C1024       C  0.97339227  0.35535861  0.36771616    -0.15300
C1025       C  0.99925501  0.37184695  0.35265464    -0.30500
H1026       H  0.94718355  0.36013753  0.35968473     0.13700
H1027       H  0.52949569  0.36421365  0.35996437     0.14300
C1028       C  0.51085055  0.37287883  0.13692046    -0.15300
C1029       C  0.00835624  0.35725335  0.12332816    -0.30500
H1030       H  0.95601114  0.36852149  0.12995918     0.13700
H1031       H  0.45807443  0.36594611  0.13016904     0.14300
C1032       C  0.48920339  0.12979047  0.14218936    -0.15300
C1033       C  0.51532922  0.14563554  0.12663063    -0.30500
H1034       H  0.96145737  0.13785711  0.13545177     0.13700
H1035       H  0.54151816  0.14002826  0.13424463     0.14300
C1036       C  0.49606909  0.10569653  0.67101336     0.43600
N1037       N  0.97986898  0.07266205  0.71239612     0.02500
C1038       C  0.58551555  0.46217017  0.80361994    -0.05400
H1039       H  0.58182972  0.43227661  0.67427822     0.07900
C1040       C  0.96846662  0.41376287  0.68367586    -0.05800
Co1041     Co  0.53931874  0.04265949  0.75079606     0.74200
N1042       N  0.56123267  0.47483091  0.70331359    -0.25000
Co1043     Co  0.53436694  0.45235510  0.74314439     0.74100
C1044       C  0.47955273  0.40043779  0.66865333     0.43700
N1045       N  0.92735345  0.49093466  0.70774587     0.02100
N1046       N  0.50089492  0.43026184  0.70864831     0.02200
N1047       N  0.57942848  0.02961989  0.81443300    -0.45800
H1048       H  0.55351908  0.09545388  0.68155300     0.07900
N1049       N  0.56850972  0.01266371  0.71562114     0.02500
N1050       N  0.50687176  0.43075391  0.78312466     0.02200
C1051       C  0.99519081  0.40180267  0.82863374     0.43800
N1052       N  0.92780093  0.02184024  0.70652444    -0.24400
C1053       C  0.51939747  0.09041737  0.81230451    -0.05300
N1054       N  0.96790205  0.09304585  0.68801372    -0.45500
N1055       N  0.52007725  0.41018903  0.80667156    -0.45700
C1056       C  0.98341422  0.10251495  0.82855776     0.43600
N1057       N  0.56170096  0.01518659  0.79013568     0.02400
N1058       N  0.91930185  0.01647953  0.78058352    -0.24400
N1059       N  0.51470217  0.07075214  0.71232525    -0.24900
N1060       N  0.92408783  0.49177910  0.78292624     0.02100
H1061       H  0.89302392  0.05081476  0.81570228     0.08000
H1062       H  0.93752121  0.41061657  0.81784494     0.08000
N1063       N  0.56714771  0.47570456  0.77779208    -0.25000
N1064       N  0.97862104  0.43271786  0.71015003    -0.24600
N1065       N  0.97336707  0.06967225  0.78656349     0.02500
C1066       C  0.60351225  0.99295313  0.67747742     0.43900
C1067       C  0.91166385  0.03669919  0.68036255    -0.08200
N1068       N  0.97591697  0.43380043  0.78531455    -0.24600
H1069       H  0.94220767  0.41011238  0.67631523     0.08000
N1070       N  0.59032299  0.02237463  0.69115061    -0.45800
H1071       H  0.90694453  0.06384162  0.67689942     0.08000
C1072       C  0.89021341  0.51082243  0.82235950     0.43700
C1073       C  0.52680345  0.09090713  0.68707256    -0.05300
Co1074     Co  0.94957121  0.04559507  0.74692971     0.73800
N1075       N  0.90854209  0.48026235  0.68198604    -0.45500
C1076       C  0.60232419  0.49107328  0.81922781     0.44000
N1077       N  0.95819387  0.08902106  0.81019769    -0.45500
Co1078     Co  0.95069166  0.46155392  0.74654813     0.73900
C1079       C  0.96416059  0.41490823  0.81170032    -0.05800
C1080       C  0.57921411  0.45956764  0.67816376    -0.05400
N1081       N  0.50962641  0.07011788  0.78687210    -0.24900
N1082       N  0.50929139  0.40939537  0.68311900    -0.45700
H1083       H  0.58658879  0.43546409  0.81094153     0.08000
C1084       C  0.89815729  0.02510004  0.80671557    -0.05800
Cl1085     Cl  0.49424840  0.00017171  0.74824695    -0.48800
C1086       C  0.90118702  0.00856858  0.65977304     0.43700
H1087       H  0.54559225  0.09605869  0.81838868     0.07900
N1088       N  0.90166730  0.48187458  0.80667528    -0.45500
C1089       C  0.60575115  0.18100088  0.99014238     0.43600
N1090       N  0.57043031  0.22188408  0.97781833     0.02500
C1091       C  0.95712033  0.31207183  0.58669590    -0.05400
H1092       H  0.95142461  0.17897190  0.59546178     0.07900
C1093       C  0.90884708  0.18410814  0.97343298    -0.05800
Co1094     Co  0.54491801  0.25586353  0.54027016     0.74200
N1095       N  0.98430862  0.21443086  0.56950584    -0.25000
Co1096     Co  0.95129843  0.24756856  0.54273556     0.74100
C1097       C  0.89746566  0.16818378  0.00543556     0.43700
N1098       N  0.98114308  0.21285131  0.92595097     0.02100
N1099       N  0.92998567  0.20682438  0.51713083     0.02200
N1100       N  0.52728949  0.31723322  0.58510753    -0.45800
H1101       H  0.60070545  0.18853153  0.54931897     0.07900
N1102       N  0.52173790  0.21743820  0.56922807     0.02500
N1103       N  0.91938894  0.28122080  0.51498417     0.02200
C1104       C  0.88717516  0.32442371  0.00363657     0.43800
N1105       N  0.51691012  0.21673524  0.92556477    -0.24400
C1106       C  0.58617511  0.32091172  0.51951298    -0.05300
N1107       N  0.59106265  0.19826364  0.96399582    -0.45500
N1108       N  0.89815891  0.30499768  0.52770342    -0.45700
C1109       C  0.58958156  0.34017940  0.99061131     0.43600
N1110       N  0.51530714  0.29194040  0.56675598     0.02400
N1111       N  0.50602110  0.29053545  0.92593888    -0.24400
N1112       N  0.57344663  0.21970998  0.51248545    -0.24900
N1113       N  0.97363914  0.28759553  0.92667014     0.02100
H1114       H  0.53875702  0.32704476  0.90139845     0.08000
H1115       H  0.89234534  0.31264679  0.94600655     0.08000
N1116       N  0.97301822  0.28825514  0.56753727    -0.25000
N1117       N  0.92842589  0.20998541  0.98315789    -0.24600
N1118       N  0.56043466  0.29624211  0.97821782     0.02500
C1119       C  0.51255189  0.17540487  0.60342534     0.43900
C1120       C  0.53239096  0.19306863  0.90590891    -0.05800
N1121       N  0.92254967  0.28422488  0.98271049    -0.24600
H1122       H  0.90221315  0.17835991  0.94735272     0.08000
N1123       N  0.53741162  0.19402042  0.58856023    -0.45800
H1124       H  0.55956142  0.19097895  0.90040949     0.08000
C1125       C  0.98140842  0.33189513  0.89549952     0.43700
C1126       C  0.59467961  0.19446323  0.52298625    -0.05300
Co1127     Co  0.53888788  0.25651429  0.95140512     0.73800
N1128       N  0.97117807  0.18677278  0.90710366    -0.45500
C1129       C  0.98436469  0.33275547  0.59948582     0.44000
N1130       N  0.57710960  0.32213133  0.96449962    -0.45500
Co1131     Co  0.95092348  0.24836873  0.95401685     0.73900
C1132       C  0.89971150  0.30806763  0.97224223    -0.05800
C1133       C  0.97691995  0.18784152  0.58988736    -0.05400
N1134       N  0.56717857  0.29433780  0.51040825    -0.24900
N1135       N  0.91236972  0.18195015  0.53158632    -0.45700
H1136       H  0.92989617  0.31383934  0.59200468     0.08000
C1137       C  0.51330770  0.31790001  0.90667362    -0.05800
Cl1138     Cl  0.49536366  0.25086303  0.99630814    -0.48800
C1139       C  0.50474892  0.17271171  0.89341142     0.43700
H1140       H  0.59295401  0.32719055  0.54542264     0.07900
N1141       N  0.95722801  0.31172365  0.90900316    -0.45500
C1142       C  0.83588302  0.48759650  0.59383331     0.43600
N1143       N  0.78944105  0.00996137  0.56947943     0.02500
C1144       C  0.67165706  0.42042549  0.97256049    -0.05400
H1145       H  0.79879783  0.40210839  0.92875742     0.07900
C1146       C  0.80206477  0.03437678  0.90749382    -0.05800
Co1147     Co  0.74937520  0.45545716  0.53778085     0.74200
N1148       N  0.77359114  0.42761443  0.97130146    -0.25000
Co1149     Co  0.73667416  0.46034544  0.94957791     0.74100
C1150       C  0.81567481  0.49396660  0.88488729     0.43700
N1151       N  0.78327619  0.07192540  0.98101852     0.02100
N1152       N  0.77413397  0.48410037  0.91971238     0.02200
N1153       N  0.68448916  0.41545309  0.52678706    -0.45800
H1154       H  0.81987882  0.43285423  0.58181571     0.07900
N1155       N  0.78201876  0.42989315  0.50318995     0.02500
N1156       N  0.70009914  0.49398998  0.92809579     0.02200
C1157       C  0.66257569  0.99498981  0.90201786     0.43800
N1158       N  0.78751940  0.06697903  0.51668770    -0.24400
C1159       C  0.69011521  0.47213659  0.59044148    -0.05300
N1160       N  0.81688721  0.01887521  0.58660392    -0.45500
N1161       N  0.67528114  0.48542988  0.90707192    -0.45700
C1162       C  0.67297203  0.00729358  0.60935049     0.43600
N1163       N  0.70785394  0.43521960  0.51264186     0.02400
N1164       N  0.71339057  0.07031970  0.52385684    -0.24400
N1165       N  0.79095843  0.47626005  0.56218669    -0.24900
N1166       N  0.70845957  0.07310495  0.98880519     0.02100
H1167       H  0.68847286  0.09675632  0.56585647     0.08000
H1168       H  0.66801694  0.05349678  0.90870041     0.08000
N1169       N  0.69979196  0.43745915  0.98090504    -0.25000
N1170       N  0.77881479  0.02028656  0.92791348    -0.24600
N1171       N  0.71502005  0.01657556  0.57535058     0.02500
C1172       C  0.81504343  0.39011170  0.98396639     0.43900
C1173       C  0.81477812  0.08528346  0.52528519    -0.05800
N1174       N  0.70439085  0.01840104  0.93261242    -0.24600
H1175       H  0.80506571  0.06145839  0.90302411     0.08000
N1176       N  0.80585915  0.40649425  0.51092590    -0.45800
H1177       H  0.82363775  0.08913762  0.55104327     0.08000
C1178       C  0.67069202  0.10830606  0.00909743     0.43700
C1179       C  0.81652884  0.46023661  0.57888275    -0.05300
Co1180     Co  0.75187463  0.04140357  0.54687318     0.73800
N1181       N  0.80638188  0.09142053  0.96583669    -0.45500
C1182       C  0.65819147  0.40735025  0.00514325     0.44000
N1183       N  0.69252646  0.03190836  0.59601035    -0.45500
Co1184     Co  0.74309880  0.04649801  0.95704122     0.73900
C1185       C  0.67658254  0.02754582  0.91405447    -0.05800
C1186       C  0.79609980  0.40609021  0.95601560    -0.05400
N1187       N  0.71670859  0.48254534  0.57128048    -0.24900
N1188       N  0.79619792  0.46901616  0.89825124    -0.45700
H1189       H  0.66288221  0.41637115  0.94680601     0.08000
C1190       C  0.69041472  0.09134582  0.53879417    -0.05800
Cl1191     Cl  0.74747137  0.00101208  0.00023103    -0.48800
C1192       C  0.82724045  0.10241985  0.99059228     0.43700
H1193       H  0.68098725  0.44628799  0.59198720     0.07900
N1194       N  0.68319673  0.09447555  0.97969886    -0.45500
C1195       C  0.84294342  0.36417042  0.98059387    -0.15300
C1196       C  0.85977953  0.35095469  0.00759766    -0.30500
H1197       H  0.85248445  0.35941976  0.45127881     0.13700
H1198       H  0.85311258  0.35946373  0.03327257     0.14300
C1199       C  0.87202465  0.14111980  0.01067775    -0.15300
C1200       C  0.85468788  0.12738399  0.98480538    -0.30500
H1201       H  0.86899868  0.12877147  0.53810009     0.13700
H1202       H  0.85975585  0.13549534  0.95865486     0.14300
C1203       C  0.61375728  0.36831317  0.98547033    -0.15300
C1204       C  0.63095053  0.38227695  0.01118900    -0.30500
H1205       H  0.62605357  0.37259895  0.45484330     0.13700
H1206       H  0.62629269  0.37389569  0.03733518     0.14300
C1207       C  0.63050719  0.15216264  0.98566376    -0.15300
C1208       C  0.64443345  0.13579956  0.01251321    -0.30500
H1209       H  0.63780951  0.14470561  0.95981758     0.13700
H1210       H  0.63818748  0.14132345  0.53986976     0.14300
C1211       C  0.84393537  0.48824253  0.85984827    -0.15300
C1212       C  0.86279374  0.51425801  0.84844010    -0.30500
H1213       H  0.84900598  0.46252392  0.85047752     0.13700
H1214       H  0.85109066  0.95936509  0.85054141     0.14300
C1215       C  0.63468061  0.98749216  0.87800050    -0.15300
C1216       C  0.62504939  0.48958539  0.84959938    -0.30500
H1217       H  0.63078644  0.54270454  0.85519402     0.13700
H1218       H  0.62116418  0.03844451  0.86739401     0.14300
C1219       C  0.62917232  0.98848358  0.64997485    -0.15300
C1220       C  0.64594527  0.01406135  0.63527822    -0.30500
H1221       H  0.63028870  0.45733040  0.62632255     0.13700
H1222       H  0.64052903  0.04027510  0.64301321     0.14300
C1223       C  0.87670740  0.01212458  0.63207838    -0.15300
C1224       C  0.86218121  0.48362459  0.62042543    -0.30500
H1225       H  0.86939691  0.03775384  0.62357780     0.13700
H1226       H  0.86950024  0.45803295  0.62897417     0.14300
C1227       C  0.97753779  0.12875593  0.85506411    -0.15300
C1228       C  0.50888077  0.14473597  0.86867749    -0.30500
H1229       H  0.95141078  0.13641106  0.86178604     0.13700
H1230       H  0.53486045  0.13754191  0.86106548     0.14300
C1231       C  0.97417050  0.35973413  0.87090323    -0.15300
C1232       C  0.99973585  0.37707616  0.85661526    -0.30500
H1233       H  0.94788030  0.36478583  0.86329941     0.13700
H1234       H  0.52506841  0.36844832  0.86076789     0.14300
C1235       C  0.47585545  0.37513434  0.64114429    -0.15300
C1236       C  0.97950234  0.36018191  0.62495428    -0.30500
H1237       H  0.03176965  0.36766915  0.63338075     0.13700
H1238       H  0.52871935  0.36811521  0.63202934     0.14300
C1239       C  0.49236179  0.13156234  0.64365353    -0.15300
C1240       C  0.51862306  0.14783470  0.62891573    -0.30500
H1241       H  0.96493276  0.13694508  0.63573567     0.13700
H1242       H  0.54476909  0.14156421  0.63622309     0.14300
C1243       C  0.49426680  0.60609008  0.17169440     0.43600
N1244       N  0.97829581  0.57261355  0.21356465     0.02500
C1245       C  0.58443835  0.97535011  0.31773796    -0.05400
H1246       H  0.59520377  0.94190102  0.18931336     0.07900
C1247       C  0.97365363  0.91259589  0.18204778    -0.05800
Co1248     Co  0.54313937  0.54219565  0.24880486     0.74200
N1249       N  0.56945989  0.98288054  0.21632794    -0.25000
Co1250     Co  0.54166531  0.95671808  0.25176640     0.74100
C1251       C  0.50895565  0.89896982  0.16821436     0.43700
N1252       N  0.92751869  0.98740723  0.20737439     0.02100
N1253       N  0.51799450  0.93025366  0.21212055     0.02200
N1254       N  0.58629108  0.52408135  0.31286126    -0.45800
H1255       H  0.55240453  0.59835701  0.18073434     0.07900
N1256       N  0.57161860  0.51464620  0.21097937     0.02500
N1257       N  0.51222970  0.93067114  0.28659693     0.02200
C1258       C  0.99790575  0.89658993  0.32580960     0.43800
N1259       N  0.92264379  0.52278995  0.21274761    -0.24400
C1260       C  0.52406448  0.58615972  0.31305723    -0.05300
N1261       N  0.96449717  0.59372029  0.19073103    -0.45500
N1262       N  0.52446880  0.91161311  0.31176655    -0.45700
C1263       C  0.99484087  0.59728564  0.33097334     0.43600
N1264       N  0.56835535  0.51286471  0.28664899     0.02400
N1265       N  0.92320841  0.51807066  0.28728023    -0.24400
N1266       N  0.51578631  0.57087857  0.21182996    -0.24900
N1267       N  0.92405762  0.98168305  0.28214263     0.02100
H1268       H  0.89675794  0.55457766  0.31987852     0.08000
H1269       H  0.94076221  0.90077293  0.31141185     0.08000
N1270       N  0.56548622  0.98487437  0.29050490    -0.25000
N1271       N  0.98284201  0.93181361  0.20852577    -0.24600
N1272       N  0.98003599  0.56791204  0.28787758     0.02500
C1273       C  0.60571331  0.49735203  0.17074864     0.43900
C1274       C  0.90458792  0.53696830  0.18721147    -0.08200
N1275       N  0.97873477  0.92909051  0.28300512    -0.24600
H1276       H  0.94759044  0.90786789  0.17471330     0.08000
N1277       N  0.59315990  0.52583225  0.18683631    -0.45800
H1278       H  0.90132888  0.56405140  0.18214696     0.08000
C1279       C  0.89028173  0.99050198  0.32475376     0.43700
C1280       C  0.52611285  0.59238209  0.18681537    -0.05300
Co1281     Co  0.95071615  0.54592313  0.25055602     0.73800
N1282       N  0.90988336  0.97813183  0.18016975    -0.45500
C1283       C  0.59548273  0.00764613  0.33286339     0.44000
N1284       N  0.96771283  0.58600986  0.31387664    -0.45500
Co1285     Co  0.95266117  0.95694227  0.24483746     0.73900
C1286       C  0.96714941  0.90773573  0.30739589    -0.05800
C1287       C  0.59006550  0.96894747  0.19278243    -0.05400
N1288       N  0.51383000  0.56734674  0.28668359    -0.24900
N1289       N  0.53361011  0.91106127  0.18849348    -0.45700
H1290       H  0.59057731  0.94928932  0.32525278     0.08000
C1291       C  0.90240950  0.52829425  0.31303552    -0.05800
Cl1292     Cl  0.49838459  0.49851463  0.24673592    -0.48800
C1293       C  0.89140871  0.50814596  0.16865754     0.43700
H1294       H  0.55037681  0.59141971  0.31902566     0.07900
N1295       N  0.90460209  0.96604665  0.30501196    -0.45500
C1296       C  0.60912517  0.68406650  0.49897628     0.43600
N1297       N  0.57300472  0.72221329  0.48222106     0.02500
C1298       C  0.95999596  0.81535362  0.08176036    -0.05400
H1299       H  0.94671499  0.68176406  0.09327027     0.07900
C1300       C  0.91841753  0.67492222  0.47384322    -0.05800
Co1301     Co  0.54358372  0.75496767  0.04081540     0.74200
N1302       N  0.98223228  0.71582457  0.06842478    -0.25000
Co1303     Co  0.95326567  0.74993661  0.03746748     0.74100
C1304       C  0.90635242  0.66124997  0.50671118     0.43700
N1305       N  0.99111532  0.70546035  0.42775252     0.02100
N1306       N  0.93261442  0.70919494  0.01098228     0.02200
N1307       N  0.52230443  0.81820864  0.08524419    -0.45800
H1308       H  0.60100520  0.68772021  0.05323554     0.07900
N1309       N  0.51805571  0.71807309  0.06898967     0.02500
N1310       N  0.92593209  0.78401841  0.00490123     0.02200
C1311       C  0.88792830  0.81760906  0.48653995     0.43800
N1312       N  0.52212803  0.71081389  0.42844229    -0.24400
C1313       C  0.58635607  0.81852098  0.02079617    -0.05300
N1314       N  0.59485327  0.69840621  0.47106724    -0.45500
N1315       N  0.90385446  0.80897108  0.01355947    -0.45700
C1316       C  0.59209323  0.83977158  0.48695029     0.43600
N1317       N  0.51262009  0.79278440  0.06531392     0.02400
N1318       N  0.51034657  0.78438537  0.42220701    -0.24400
N1319       N  0.57288643  0.71685062  0.01518314    -0.24900
N1320       N  0.97809059  0.77912684  0.42087035     0.02100
H1321       H  0.54290591  0.82066534  0.39710466     0.08000
H1322       H  0.89834146  0.80014189  0.43157349     0.08000
N1323       N  0.97523649  0.79038726  0.06336251    -0.25000
N1324       N  0.93568580  0.70292800  0.48194527    -0.24600
N1325       N  0.56242382  0.79583621  0.47600131     0.02500
C1326       C  0.50752631  0.67673070  0.10359309     0.43900
C1327       C  0.53814967  0.68626166  0.41018138    -0.05800
N1328       N  0.92455157  0.77595930  0.47383792    -0.24600
H1329       H  0.91342538  0.66645664  0.44814106     0.08000
N1330       N  0.53278461  0.69508167  0.08938257    -0.45800
H1331       H  0.56536052  0.68451366  0.40477522     0.08000
C1332       C  0.98490130  0.82206032  0.38755685     0.43700
C1333       C  0.59459308  0.69232426  0.02673795    -0.05300
Co1334     Co  0.54246508  0.75347314  0.45172018     0.73800
N1335       N  0.98365110  0.67797831  0.40986946    -0.45500
C1336       C  0.98804269  0.83369480  0.09692918     0.44000
N1337       N  0.58081909  0.82007742  0.46140820    -0.45500
Co1338     Co  0.95689188  0.74042364  0.45060419     0.73900
C1339       C  0.90280211  0.79794796  0.45875167    -0.05800
C1340       C  0.97270496  0.68992298  0.08905679    -0.05400
N1341       N  0.56835188  0.79147201  0.01125004    -0.24900
N1342       N  0.91421369  0.68458386  0.02487027    -0.45700
H1343       H  0.93267299  0.81901898  0.08552091     0.08000
C1344       C  0.51762308  0.81078204  0.40167517    -0.05800
Cl1345     Cl  0.49723923  0.75131146  0.49534583    -0.48800
C1346       C  0.51083233  0.66499301  0.39801923     0.43700
H1347       H  0.59054797  0.82621851  0.04689963     0.07900
N1348       N  0.96132651  0.80080877  0.40056529    -0.45500
C1349       C  0.83275973  0.99110479  0.09675733     0.43600
N1350       N  0.79511789  0.50794878  0.06157924     0.02500
C1351       C  0.68253409  0.91133373  0.47381772    -0.05400
H1352       H  0.81539808  0.90004465  0.44565791     0.07900
C1353       C  0.79882067  0.54387997  0.40729521    -0.05800
Co1354     Co  0.74759589  0.95596466  0.04375634     0.74200
N1355       N  0.78374658  0.92697994  0.48288541    -0.25000
Co1356     Co  0.74637280  0.95550651  0.45646949     0.74100
C1357       C  0.82160636  0.00381547  0.39473923     0.43700
N1358       N  0.78503256  0.57510074  0.48540346     0.02100
N1359       N  0.78274654  0.98455393  0.42865192     0.02200
N1360       N  0.68389245  0.91417074  0.03170224    -0.45800
H1361       H  0.81513627  0.93647082  0.08937808     0.07900
N1362       N  0.78335976  0.92789279  0.01496804     0.02500
N1363       N  0.70777598  0.98338821  0.43256336     0.02200
C1364       C  0.65806621  0.51970364  0.40315196     0.43800
N1365       N  0.79550576  0.56506202  0.00947687    -0.24400
C1366       C  0.68679809  0.97797516  0.09380602    -0.05300
N1367       N  0.82107715  0.51584354  0.08129299    -0.45500
N1368       N  0.68365961  0.96948220  0.41419923    -0.45700
C1369       C  0.67965592  0.51161607  0.10644016     0.43600
N1370       N  0.70879892  0.93228047  0.01789684     0.02400
N1371       N  0.72253930  0.57472742  0.02070988    -0.24400
N1372       N  0.78718442  0.97919613  0.06748058    -0.24900
N1373       N  0.71117509  0.57924088  0.49671320     0.02100
H1374       H  0.70002106  0.59960442  0.06492435     0.08000
H1375       H  0.67110855  0.57508494  0.41653852     0.08000
N1376       N  0.70891196  0.92959068  0.48466484    -0.25000
N1377       N  0.77508333  0.52986967  0.42732646    -0.24600
N1378       N  0.72160304  0.51939289  0.07148498     0.02500
C1379       C  0.82348894  0.89087327  0.50361654     0.43900
C1380       C  0.82381024  0.58203554  0.01746173    -0.05800
N1381       N  0.70154415  0.53285910  0.43660084    -0.24600
H1382       H  0.80434323  0.57079153  0.40550001     0.08000
N1383       N  0.80690248  0.90687999  0.02792820    -0.45800
H1384       H  0.83314558  0.58570463  0.04307630     0.08000
C1385       C  0.67493135  0.61375647  0.52026129     0.43700
C1386       C  0.81228685  0.96367669  0.08482511    -0.05300
Co1387     Co  0.75910751  0.54211472  0.04115323     0.73800
N1388       N  0.80890222  0.59356451  0.47033933    -0.45500
C1389       C  0.66500314  0.90044328  0.50513741     0.44000
N1390       N  0.70038458  0.53543701  0.09308278    -0.45500
Co1391     Co  0.74283445  0.55472868  0.46125344     0.73900
C1392       C  0.67557262  0.54782755  0.41939540    -0.05800
C1393       C  0.80903250  0.90557756  0.47208092    -0.05400
N1394       N  0.71300077  0.98606833  0.07289938    -0.24900
N1395       N  0.80786230  0.97452357  0.40727852    -0.45700
H1396       H  0.67652677  0.90641216  0.44740418     0.08000
C1397       C  0.70114734  0.59593541  0.03753803    -0.05800
Cl1398     Cl  0.74687582  0.50499038  0.49929572    -0.48800
C1399       C  0.83151454  0.60130321  0.49463158     0.43700
H1400       H  0.67820840  0.95235956  0.09900947     0.07900
N1401       N  0.68662992  0.60198518  0.48983392    -0.45500
C1402       C  0.84970293  0.86362694  0.50838220    -0.15300
C1403       C  0.86301822  0.84604121  0.48211161    -0.30500
H1404       H  0.85789313  0.85882234  0.03181715     0.13700
H1405       H  0.85510097  0.85221956  0.45621880     0.14300
C1406       C  0.88028328  0.63527681  0.51322790    -0.15300
C1407       C  0.86090698  0.62341422  0.48810361    -0.30500
H1408       H  0.87372765  0.62942840  0.03059006     0.13700
H1409       H  0.86530242  0.63170002  0.46188577     0.14300
C1410       C  0.61919908  0.86501841  0.48233807    -0.15300
C1411       C  0.63534655  0.87823721  0.50911474    -0.30500
H1412       H  0.63250206  0.86621309  0.95774012     0.13700
H1413       H  0.62748037  0.87178635  0.53503546     0.14300
C1414       C  0.63468678  0.65608388  0.49696855    -0.15300
C1415       C  0.64898161  0.64131053  0.52448866    -0.30500
H1416       H  0.64202670  0.64743408  0.47149463     0.13700
H1417       H  0.64807008  0.64575475  0.04280053     0.14300
C1418       C  0.84930962  0.00841044  0.36933645    -0.15300
C1419       C  0.86469092  0.98317433  0.35185794    -0.30500
H1420       H  0.85636935  0.03461298  0.36399173     0.13700
H1421       H  0.85284746  0.46606346  0.35857772     0.14300
C1422       C  0.63209723  0.52253065  0.37576517    -0.15300
C1423       C  0.61975053  0.01413081  0.36073234    -0.30500
H1424       H  0.63110667  0.96257006  0.37129792     0.13700
H1425       H  0.62977572  0.46952126  0.36811575     0.14300
C1426       C  0.63182578  0.49405569  0.14326135    -0.15300
C1427       C  0.65211652  0.51895129  0.13206538    -0.30500
H1428       H  0.63416687  0.96705940  0.13859273     0.13700
H1429       H  0.64908554  0.54461471  0.14225526     0.14300
C1430       C  0.86978292  0.51038289  0.13807151    -0.15300
C1431       C  0.86043766  0.98612577  0.12151549    -0.30500
H1432       H  0.86227267  0.53578732  0.12911015     0.13700
H1433       H  0.86745253  0.96013066  0.12907277     0.14300
C1434       C  0.99138790  0.62179262  0.35932484    -0.15300
C1435       C  0.51481564  0.63760097  0.37247733    -0.30500
H1436       H  0.96562429  0.62868357  0.36803931     0.13700
H1437       H  0.54069552  0.63080629  0.36418778     0.14300
C1438       C  0.97745302  0.84992828  0.36310525    -0.15300
C1439       C  0.00234052  0.87056202  0.35255524    -0.30500
H1440       H  0.95172506  0.85285555  0.35310389     0.13700
H1441       H  0.52745608  0.86745893  0.36359253     0.14300
C1442       C  0.51524028  0.87397165  0.14025442    -0.15300
C1443       C  0.98436370  0.86077164  0.12307080    -0.30500
H1444       H  0.03685678  0.86455920  0.13411303     0.13700
H1445       H  0.46328007  0.87008783  0.12811385     0.14300
C1446       C  0.48852731  0.63237748  0.14475211    -0.15300
C1447       C  0.51389767  0.64931466  0.12930393    -0.30500
H1448       H  0.95859460  0.63948871  0.13870551     0.13700
H1449       H  0.54027934  0.64347668  0.13608732     0.14300
C1450       C  0.49679838  0.60607855  0.66637977     0.43600
N1451       N  0.98621462  0.57337105  0.70829016     0.02500
C1452       C  0.57967915  0.97211680  0.82015876    -0.05400
H1453       H  0.59321041  0.93746164  0.69206606     0.07900
C1454       C  0.97266071  0.91319986  0.68031458    -0.05800
Co1455     Co  0.54619829  0.53966302  0.74051972     0.74200
N1456       N  0.56761954  0.97901829  0.71845510    -0.25000
Co1457     Co  0.53717777  0.95366390  0.75301412     0.74100
C1458       C  0.50424498  0.89950151  0.66662612     0.43700
N1459       N  0.92789964  0.98836468  0.70305984     0.02100
N1460       N  0.51384352  0.92874898  0.71180728     0.02200
N1461       N  0.59283938  0.51930047  0.80115087    -0.45800
H1462       H  0.55449150  0.59179362  0.66939825     0.07900
N1463       N  0.56601152  0.50808952  0.70184374     0.02500
N1464       N  0.50386642  0.92822606  0.78652882     0.02200
C1465       C  0.98107649  0.89403010  0.82449113     0.43800
N1466       N  0.93004981  0.52451307  0.70791473    -0.24400
C1467       C  0.54288573  0.58653732  0.80311442    -0.05300
N1468       N  0.97357400  0.59348875  0.68410158    -0.45500
N1469       N  0.51161763  0.90702283  0.81205302    -0.45700
C1470       C  0.99736506  0.60452055  0.82531137     0.43600
N1471       N  0.57205419  0.50898545  0.77673598     0.02400
N1472       N  0.92728940  0.52529758  0.78208767    -0.24400
N1473       N  0.51841642  0.57015566  0.70554667    -0.24900
N1474       N  0.91848506  0.98301771  0.77692453     0.02100
H1475       H  0.90331103  0.56653822  0.81055175     0.08000
H1476       H  0.92696198  0.90271915  0.80367285     0.08000
N1477       N  0.56097090  0.98146804  0.79256924    -0.25000
N1478       N  0.98068906  0.93133074  0.70786974    -0.24600
N1479       N  0.98423141  0.57396521  0.78257722     0.02500
C1480       C  0.59666003  0.48722302  0.66090335     0.43900
C1481       C  0.91278065  0.53793805  0.68156310    -0.08200
N1482       N  0.96996588  0.92881761  0.78128192    -0.24600
H1483       H  0.94705301  0.91020742  0.67075662     0.08000
N1484       N  0.58770198  0.51663550  0.67706011    -0.45800
H1485       H  0.90990216  0.56486518  0.67554065     0.08000
C1486       C  0.88432246  0.99245016  0.81894852     0.43700
C1487       C  0.52843496  0.58929822  0.67859014    -0.05300
Co1488     Co  0.95669279  0.54967684  0.74528088     0.73800
N1489       N  0.91138529  0.97904464  0.67534195    -0.45500
C1490       C  0.59163716  0.00453617  0.83464217     0.44000
N1491       N  0.97089563  0.59326033  0.80721373    -0.45500
Co1492     Co  0.94882064  0.95749845  0.74176598     0.73900
C1493       C  0.95401252  0.90804035  0.80329232    -0.05800
C1494       C  0.58871777  0.96461354  0.69549832    -0.05400
N1495       N  0.52595006  0.56945753  0.77943884    -0.24900
N1496       N  0.52905241  0.90919112  0.68818114    -0.45700
H1497       H  0.58540503  0.94610751  0.82813628     0.08000
C1498       C  0.90702097  0.53943205  0.80613827    -0.05800
Cl1499     Cl  0.49620243  0.50251306  0.74612112    -0.48800
C1500       C  0.89887495  0.50876073  0.66437623     0.43700
H1501       H  0.57042198  0.58758081  0.80533179     0.07900
N1502       N  0.89803250  0.96780275  0.79913728    -0.45500
C1503       C  0.60728590  0.67496779  0.99570212     0.43600
N1504       N  0.57236256  0.71483767  0.98148983     0.02500
C1505       C  0.96022155  0.81581586  0.58155079    -0.05400
H1506       H  0.95428172  0.68169874  0.59420890     0.07900
C1507       C  0.91760492  0.67954792  0.96731341    -0.05800
Co1508     Co  0.53974123  0.76039808  0.53999265     0.74200
N1509       N  0.98690711  0.71758153  0.56838281    -0.25000
Co1510     Co  0.95451718  0.74925817  0.53895769     0.74100
C1511       C  0.90391005  0.66470801  0.99909713     0.43700
N1512       N  0.99392493  0.70779838  0.92688268     0.02100
N1513       N  0.93467275  0.70654049  0.51549425     0.02200
N1514       N  0.51538580  0.82237529  0.58228426    -0.45800
H1515       H  0.59926687  0.69715937  0.55579765     0.07900
N1516       N  0.51706926  0.72220329  0.56892292     0.02500
N1517       N  0.92352955  0.78064568  0.50727509     0.02200
C1518       C  0.89264685  0.82301509  0.98375947     0.43800
N1519       N  0.52054388  0.70984739  0.92687762    -0.24400
C1520       C  0.57935641  0.82522179  0.51905950    -0.05300
N1521       N  0.59252146  0.69044723  0.96889940    -0.45500
N1522       N  0.90164418  0.80567066  0.51616548    -0.45700
C1523       C  0.59946313  0.83299103  0.98876304     0.43600
N1524       N  0.50655292  0.79617084  0.56316964     0.02400
N1525       N  0.51875438  0.78391797  0.92371741    -0.24400
N1526       N  0.57202226  0.72448011  0.51588792    -0.24900
N1527       N  0.98757487  0.78268397  0.92170664     0.02100
H1528       H  0.55821896  0.81390108  0.90021551     0.08000
H1529       H  0.90662181  0.80804655  0.92864374     0.08000
N1530       N  0.97562067  0.79152498  0.56243181    -0.25000
N1531       N  0.93508252  0.70697202  0.97729714    -0.24600
N1532       N  0.56976988  0.78903082  0.97759196     0.02500
C1533       C  0.50909952  0.67908123  0.60182696     0.43900
C1534       C  0.53204781  0.68383757  0.90710684    -0.05800
N1535       N  0.92931862  0.78112884  0.97134603    -0.24600
H1536       H  0.91422423  0.67162746  0.94114122     0.08000
N1537       N  0.53326510  0.69938446  0.58842336    -0.45800
H1538       H  0.55859702  0.67810540  0.90080152     0.08000
C1539       C  0.00325399  0.82449392  0.88997136     0.43700
C1540       C  0.59423615  0.70127467  0.52892318    -0.05300
Co1541     Co  0.54584613  0.74924198  0.95211499     0.73800
N1542       N  0.98572211  0.68208622  0.90689773    -0.45500
C1543       C  0.98814380  0.83548165  0.59516786     0.44000
N1544       N  0.58830668  0.81328925  0.96318502    -0.45500
Co1545     Co  0.96087034  0.74444599  0.94866609     0.73900
C1546       C  0.90933040  0.80460892  0.95596984    -0.05800
C1547       C  0.97963861  0.69112902  0.58903352    -0.05400
N1548       N  0.56155499  0.79808897  0.50967400    -0.24900
N1549       N  0.91727406  0.68228287  0.53121074    -0.45700
H1550       H  0.93306011  0.81793351  0.58711005     0.08000
C1551       C  0.53139512  0.80861481  0.90412591    -0.05800
Cl1552     Cl  0.50049589  0.75069929  0.99573881    -0.48800
C1553       C  0.50086098  0.66733640  0.89536902     0.43700
H1554       H  0.58444000  0.83230434  0.54516727     0.07900
N1555       N  0.97557078  0.80661086  0.90036431    -0.45500
C1556       C  0.83175565  0.98912233  0.59737557     0.43600
N1557       N  0.79384858  0.50959188  0.56576162     0.02500
C1558       C  0.68348055  0.91197939  0.97385441    -0.05400
H1559       H  0.81579937  0.90259482  0.94360723     0.07900
C1560       C  0.80350127  0.52623713  0.89994243    -0.05800
Co1561     Co  0.74645090  0.95340199  0.54510349     0.74200
N1562       N  0.78435699  0.92927387  0.98122455    -0.25000
Co1563     Co  0.74637259  0.95740760  0.95532125     0.74100
C1564       C  0.82062772  0.00587160  0.89281494     0.43700
N1565       N  0.79074208  0.56765275  0.97616053     0.02100
N1566       N  0.78207367  0.98661013  0.92694087     0.02200
N1567       N  0.68240933  0.91274261  0.53174250    -0.45800
H1568       H  0.81453550  0.93415310  0.59092767     0.07900
N1569       N  0.78237072  0.92558228  0.51662812     0.02500
N1570       N  0.70736775  0.98467968  0.93176800     0.02200
C1571       C  0.66145184  0.51484719  0.89441320     0.43800
N1572       N  0.79051029  0.57026831  0.51834300    -0.24400
C1573       C  0.68561893  0.97463259  0.59503441    -0.05300
N1574       N  0.82019774  0.51749669  0.58496854    -0.45500
N1575       N  0.68323605  0.97003338  0.91404712    -0.45700
C1576       C  0.67679154  0.50327228  0.60694232     0.43600
N1577       N  0.70803264  0.93015926  0.51843849     0.02400
N1578       N  0.71667412  0.57572928  0.52979755    -0.24400
N1579       N  0.78568768  0.97655343  0.56943008    -0.24900
N1580       N  0.71668164  0.57689630  0.98755212     0.02100
H1581       H  0.69359980  0.59990118  0.57432206     0.08000
H1582       H  0.67921477  0.56976507  0.90327651     0.08000
N1583       N  0.70940172  0.93123549  0.98414366    -0.25000
N1584       N  0.77789085  0.51752336  0.92114714    -0.24600
N1585       N  0.71983461  0.51578222  0.57549993     0.02500
C1586       C  0.82467889  0.89343950  0.00142772     0.43900
C1587       C  0.81937075  0.58608221  0.52675179    -0.05800
N1588       N  0.70407403  0.52741545  0.92956147    -0.24600
H1589       H  0.81239510  0.55192369  0.89586349     0.08000
N1590       N  0.80557306  0.90443157  0.52989931    -0.45800
H1591       H  0.83006600  0.58707063  0.55210136     0.08000
C1592       C  0.68062650  0.61164706  0.01108754     0.43700
C1593       C  0.81113680  0.96132893  0.58651859    -0.05300
Co1594     Co  0.75557100  0.54322288  0.54797553     0.73800
N1595       N  0.81455435  0.58594131  0.96056543    -0.45500
C1596       C  0.66656771  0.90087599  0.00550433     0.44000
N1597       N  0.69648076  0.52915260  0.59653888    -0.45500
Co1598     Co  0.74710305  0.54803142  0.95320284     0.73900
C1599       C  0.68056793  0.54275243  0.90934319    -0.05800
C1600       C  0.80972571  0.90809172  0.97010046    -0.05400
N1601       N  0.71164063  0.98313988  0.57408460    -0.24900
N1602       N  0.80698139  0.97657503  0.90538585    -0.45700
H1603       H  0.67755451  0.90627902  0.94758657     0.08000
C1604       C  0.69477376  0.59657119  0.54687969    -0.05800
Cl1605     Cl  0.74736022  0.50136081  0.99538332    -0.48800
C1606       C  0.83648685  0.59580284  0.98484027     0.43700
H1607       H  0.67734410  0.94888934  0.60014166     0.07900
N1608       N  0.69148068  0.59902868  0.98051744    -0.45500
C1609       C  0.85144803  0.86653660  0.00587976    -0.15300
C1610       C  0.86703453  0.85100183  0.97941736    -0.30500
H1611       H  0.85725468  0.85711652  0.53432991     0.13700
H1612       H  0.86054270  0.85857134  0.95347022     0.14300
C1613       C  0.87980129  0.63639542  0.00432224    -0.15300
C1614       C  0.86366657  0.62108302  0.97862225    -0.30500
H1615       H  0.87510990  0.62799361  0.53960882     0.13700
H1616       H  0.86893790  0.62869716  0.95235696     0.14300
C1617       C  0.62448303  0.86036020  0.98377159    -0.15300
C1618       C  0.63870367  0.87636615  0.01014354    -0.30500
H1619       H  0.62723142  0.87127114  0.45640307     0.13700
H1620       H  0.63086714  0.87031825  0.03618281     0.14300
C1621       C  0.63397415  0.64853282  0.99114311    -0.15300
C1622       C  0.65281799  0.63673308  0.01692000    -0.30500
H1623       H  0.63902151  0.63943365  0.96531116     0.13700
H1624       H  0.64197525  0.64965861  0.55011974     0.14300
C1625       C  0.84761914  0.01031552  0.86680538    -0.15300
C1626       C  0.85980986  0.98532600  0.84690673    -0.30500
H1627       H  0.85626065  0.03621825  0.86263713     0.13700
H1628       H  0.85747360  0.53989651  0.85782665     0.14300
C1629       C  0.63752834  0.51740565  0.86495008    -0.15300
C1630       C  0.61639770  0.01179068  0.86194429    -0.30500
H1631       H  0.63038326  0.96084398  0.87210893     0.13700
H1632       H  0.63170507  0.46437767  0.85964470     0.14300
C1633       C  0.62542759  0.48268137  0.63668942    -0.15300
C1634       C  0.64649834  0.50816884  0.62915018    -0.30500
H1635       H  0.63513915  0.96235584  0.64236021     0.13700
H1636       H  0.64167714  0.53343715  0.63979933     0.14300
C1637       C  0.87546439  0.51099767  0.63520058    -0.15300
C1638       C  0.86084580  0.98515815  0.62014373    -0.30500
H1639       H  0.86812026  0.53647231  0.62629121     0.13700
H1640       H  0.86779129  0.95955868  0.62901145     0.14300
C1641       C  0.99317238  0.62847565  0.85390955    -0.15300
C1642       C  0.49621524  0.64086000  0.86947814    -0.30500
H1643       H  0.96732739  0.63696918  0.86081236     0.13700
H1644       H  0.47010304  0.63405744  0.86365083     0.14300
C1645       C  0.00465508  0.85321698  0.86572107    -0.15300
C1646       C  0.97727865  0.86661168  0.85013411    -0.30500
H1647       H  0.02980532  0.86334130  0.86009446     0.13700
H1648       H  0.45140518  0.85813459  0.85466462     0.14300
C1649       C  0.50928181  0.87517558  0.63801174    -0.15300
C1650       C  0.98450073  0.86198448  0.62179471    -0.30500
H1651       H  0.03675710  0.86431975  0.63458507     0.13700
H1652       H  0.45682966  0.87305746  0.62618797     0.14300
C1653       C  0.49124294  0.63241722  0.63982742    -0.15300
C1654       C  0.51648789  0.65038565  0.62557039    -0.30500
H1655       H  0.96912559  0.63715370  0.63192700     0.13700
H1656       H  0.54293483  0.64492417  0.63240163     0.14300
loop_ 
_geom_bond_atom_site_label_1 
_geom_bond_atom_site_label_2 
_geom_bond_distance 
_geom_bond_site_symmetry_2 
_ccdc_geom_bond_type 
C1           C38   1.462   1_655  S
C1          C204   1.475       .  S
C1          N847   1.349       .  A
N2           N19   1.323       .  A
N2          N852   1.320       .  A
N2          Co39   2.096       .  S
C3           C41   1.462       .  S
C3           N28   1.345       .  A
C3           H48   1.081       .  S
H4           C45   1.082       .  S
C5          C837   1.462       .  S
C5           N29   1.339       .  A
C5           H34   1.081       .  S
Co6          N24   2.075       .  S
Co6          N14   2.118       .  S
Co6          N46   2.104       .  S
Co6          N22   2.057       .  S
Co6         Cl50   2.459   1_455  S
N7           C45   1.333       .  A
N7          N428   1.322       .  A
N7           Co8   2.065       .  S
Co8          N11   2.113       .  S
Co8          N28   2.108       .  S
Co8          N15   2.070       .  S
Co8        Cl464   2.441   1_455  S
C9          C833   1.441       .  S
C9          C200   1.468       .  S
C9           N47   1.358   1_655  A
N10          N40   1.328       .  A
N10         N431   1.320       .  A
N10         Co43   2.096       .  S
N11          N47   1.330       .  A
N11         N857   1.318   1_455  A
N12         C455   1.340       .  A
N12          N22   1.321       .  A
H13          C38   1.081       .  S
N14          N35   1.332       .  A
N14         N421   1.320   1_545  A
N15          N20   1.321       .  A
N15         N861   1.319   1_455  A
C16          C44   1.464       .  S
C16         C197   1.466       .  S
C16         N848   1.343       .  A
N17          C32   1.330       .  A
N17         N424   1.319   1_545  A
N17         Co39   2.041       .  S
C18         C849   1.466   1_455  S
C18          N46   1.342       .  A
C18          H52   1.081       .  S
N19         C829   1.347       .  A
N20         C844   1.344   1_455  A
C21         C846   1.467       .  S
C21         C192   1.476       .  S
C21          N42   1.345       .  A
N22         N442   1.321   1_545  A
N23          C49   1.347       .  A
N23         N439   1.321   1_545  A
N23         Co39   2.113       .  S
N24          C38   1.343       .  A
N24         N830   1.319   1_455  A
N25          N53   1.325       .  A
N25         N437   1.320       .  A
N25         Co43   2.075       .  S
H26          C49   1.081       .  S
H27          C44   1.081       .  S
N28         N436   1.322       .  A
N29         N839   1.318       .  A
N29         Co43   2.077       .  S
N30          N42   1.324       .  A
N30         N874   1.320       .  A
N30         Co39   2.062       .  S
C31         C459   1.433       .  S
C31         C184   1.462       .  S
C31          N35   1.360   1_565  A
C32          C51   1.434       .  S
C32          H36   1.081       .  S
N33          C44   1.345       .  A
N33         N843   1.320       .  A
N33         Co43   2.091       .  S
C37         C463   1.469       .  S
C37         C177   1.482       .  S
C37          N53   1.346       .  A
Co39       Cl878   2.438       .  S
N40         C465   1.354       .  A
C41         C181   1.493       .  S
C41         N426   1.355       .  A
Co43      Cl1292   2.466       .  S
C45         C445   1.446       .  S
N46         N858   1.320   1_455  A
C49         C451   1.474   1_545  S
Cl50       Co422   2.439   1_645  S
Cl50       Co867   2.440       .  S
Cl50      Co1285   2.461   1_545  S
C51         C188   1.466       .  S
C51         N454   1.361   1_545  A
C54         C298   1.469       .  S
C54         C172   1.479       .  S
C54          N72   1.345       .  A
N55          N72   1.324       .  A
N55         N284   1.320       .  A
N55         Co92   2.078       .  S
C56          C94   1.451       .  S
C56          N81   1.337       .  A
C56         H101   1.082       .  S
H57          C98   1.081       .  S
C58          C62   1.465       .  S
C58          N82   1.344       .  A
C58          H87   1.081       .  S
Co59         N77   2.069       .  S
Co59         N67   2.096       .  S
Co59         N99   2.094       .  S
Co59         N75   2.057       .  S
Co59       Cl310   2.453   1_454  S
N60          C98   1.339       .  A
N60         N895   1.320       .  A
N60         Co61   2.082       .  S
Co61         N64   2.082       .  S
Co61         N81   2.077       .  S
Co61         N68   2.091       .  S
Co61      Cl1138   2.439   1_554  S
C62         C164   1.487       .  S
C62         N307   1.352       .  A
N63          N93   1.330       .  A
N63         N898   1.321       .  A
N63         Co96   2.109       .  S
N64         N100   1.323       .  A
N64         N289   1.320   1_554  A
N65         C922   1.340       .  A
N65          N75   1.321       .  A
H66          C91   1.081       .  S
N67          N88   1.327       .  A
N67         N888   1.320   1_455  A
N68          N73   1.326       .  A
N68         N293   1.320   1_554  A
C69          C97   1.464       .  S
C69         C161   1.485       .  S
C69         N280   1.351       .  A
N70          C85   1.337       .  A
N70         N891   1.321   1_455  A
N70         Co92   2.076       .  S
C71         C281   1.464   1_554  S
C71          N99   1.343       .  A
C71         H105   1.081       .  S
N73         C276   1.350       .  A
C74         C278   1.470       .  S
C74         C168   1.485       .  S
C74          N95   1.348       .  A
N75         N909   1.321   1_455  A
N76         C102   1.337       .  A
N76         N906   1.320   1_455  A
N76         Co92   2.075       .  S
N77          C91   1.336       .  A
N77         N262   1.318   1_554  A
N78         N106   1.325       .  A
N78         N904   1.320       .  A
N78         Co96   2.083       .  S
H79         C102   1.081       .  S
H80          C97   1.081       .  S
N81         N903   1.321       .  A
N82         N271   1.321       .  A
N82         Co96   2.092       .  S
N83          N95   1.325       .  A
N83         N306   1.320       .  A
N83         Co92   2.084       .  S
C84         C926   1.460   1_455  S
C84         C205   1.479       .  S
C84          N88   1.352       .  A
C85         C104   1.449       .  S
C85          H89   1.081       .  S
N86          C97   1.345       .  A
N86         N275   1.321       .  A
N86         Co96   2.099       .  S
C90         C930   1.461       .  S
C90         C196   1.473       .  S
C90         N106   1.348       .  A
C91         C261   1.460   1_554  S
Co92       Cl103   2.440   1_455  S
N93         C932   1.357       .  A
C94         C201   1.469       .  S
C94         N893   1.352       .  A
Co96       Cl931   2.463       .  S
C98         C912   1.461       .  S
N99         N290   1.319   1_554  A
N100        C269   1.347       .  A
C102        C918   1.460   1_455  S
Cl103      Co266   2.470   1_655  S
Cl103     Co1096   2.440       .  S
Cl103      Co924   2.470       .  S
C104        C193   1.473       .  S
C104        N921   1.355   1_455  A
C107        C144   1.456       .  S
C107        C189   1.475       .  S
C107        N539   1.352       .  A
N108        N125   1.330       .  A
N108        N544   1.318   1_545  A
N108       Co145   2.115       .  S
C109        C147   1.470       .  S
C109        N134   1.348       .  A
C109        H154   1.081       .  S
H110        C151   1.082       .  S
C111        C529   1.440       .  S
C111        N135   1.331       .  A
C111        H140   1.081       .  S
Co112       N130   2.086       .  S
Co112       N120   2.097       .  S
Co112       N152   2.101       .  S
Co112       N128   2.089       .  S
Co112      Cl777   2.450   1_554  S
N113        C151   1.343       .  A
N113        N327   1.323       .  A
N113       Co114   2.098       .  S
Co114       N117   2.119       .  S
Co114       N134   2.110       .  S
Co114       N121   2.107       .  S
Co114      Cl570   2.463       .  S
C115        C525   1.444       .  S
C115        C176   1.476       .  S
C115        N153   1.359       .  A
N116        N146   1.326       .  A
N116        N330   1.320       .  A
N116       Co149   2.106       .  S
N117        N153   1.333       .  A
N117        N549   1.321       .  A
N118        C354   1.349       .  A
N118        N128   1.325       .  A
H119        C144   1.082       .  S
N120        N141   1.328       .  A
N120        N320   1.321   1_554  A
N121        N126   1.330       .  A
N121        N553   1.322       .  A
C122        C150   1.479   1_565  S
C122        C180   1.481       .  S
C122        N540   1.338       .  A
N123        C138   1.341       .  A
N123        N323   1.320   1_554  A
N123       Co145   2.072       .  S
C124        C541   1.469       .  S
C124        N152   1.344       .  A
C124        H158   1.081       .  S
N125        C521   1.361   1_545  A
N126        C536   1.354       .  A
C127        C538   1.470   1_545  S
C127        C185   1.470       .  S
C127        N148   1.340       .  A
N128        N341   1.321   1_554  A
N129        C155   1.336       .  A
N129        N338   1.321   1_554  A
N129       Co145   2.087       .  S
N130        C144   1.342       .  A
N130        N522   1.320       .  A
N131        N159   1.330       .  A
N131        N336   1.322       .  A
N131       Co149   2.104       .  S
H132        C155   1.081       .  S
H133        C150   1.081       .  S
N134        N335   1.323       .  A
N135        N531   1.322   1_545  A
N135       Co149   2.066       .  S
N136        N148   1.321       .  A
N136        N566   1.318   1_545  A
N136       Co145   2.057       .  S
C137        C151   1.459       .  S
C137        C160   1.484       .  S
C137        N348   1.353       .  A
C138        C364   1.462   1_554  S
C138        H142   1.081       .  S
N139        C150   1.353       .  A
N139        N535   1.322   1_545  A
N139       Co149   2.126       .  S
N141        C344   1.353   1_554  A
C143        C362   1.448       .  S
C143        C173   1.476       .  S
C143        N159   1.357       .  A
Co145      Cl363   2.453   1_545  S
N146        C157   1.351       .  A
C147        C169   1.484       .  S
C147        N325   1.347       .  A
Co149      Cl156   2.451       .  S
N152        N550   1.320       .  A
C155        C350   1.450       .  S
Cl156      Co733   2.447   1_545  S
Cl156      Co528   2.457   1_545  S
Cl156      Co352   2.451       .  S
C157        C345   1.465       .  S
C157        C165   1.485       .  S
C160        C161   1.346       .  D
C160        H369   1.085       .  S
C161        H163   1.086       .  S
H162        C367   1.085       .  S
C164        C165   1.347       .  D
C164        H373   1.086       .  S
C165        H167   1.085       .  S
H166        C371   1.085       .  S
C168        C169   1.343       .  D
C168        H377   1.086       .  S
C169        H171   1.085       .  S
H170        C375   1.085       .  S
C172        C173   1.338       .  D
C172        H174   1.086       .  S
C173        H382   1.086       .  S
H175        C380   1.085       .  S
C176        C177   1.338       .  D
C176        H178   1.085       .  S
C177        H593   1.086       .  S
H179        C591   1.086       .  S
C180        C595   1.334   1_565  D
C180        H596   1.086       .  S
C181        C594   1.350       .  D
C181        H597   1.086       .  S
H182        C594   1.086       .  S
H183        C595   1.086       .  S
C184        C185   1.329   1_565  D
C184        H600   1.086       .  S
C185        H187   1.086       .  S
H186        C598   1.085       .  S
C188        C603   1.325   1_545  D
C188        H190   1.087       .  S
C189        C602   1.339       .  D
C189        H191   1.086       .  S
C192       C1021   1.336       .  D
C192        H194   1.086       .  S
C193       C1020   1.339   1_455  D
C193        H195   1.085       .  S
C196        C197   1.338       .  D
C196        H198   1.086       .  S
C197       H1027   1.085       .  S
H199       C1025   1.085   1_455  S
C200       C1029   1.332   1_655  D
C200       H1030   1.086       .  S
C201       C1028   1.339       .  D
C201       H1031   1.085       .  S
H202       C1028   1.087       .  S
H203       C1029   1.086       .  S
C204        C205   1.344   1_655  D
C204       H1034   1.085       .  S
C205        H207   1.086       .  S
H206       C1032   1.085       .  S
C208        C245   1.469   1_655  S
C208        C411   1.477       .  S
C208       N1054   1.344       .  A
N209        N226   1.321       .  A
N209       N1059   1.320       .  A
N209       Co246   2.088       .  S
C210        C248   1.452       .  S
C210        N235   1.339       .  A
C210        H255   1.081       .  S
H211        C252   1.081       .  S
C212       C1044   1.455       .  S
C212        N236   1.341       .  A
C212        H241   1.082       .  S
Co213       N231   2.096       .  S
Co213       N221   2.119       .  S
Co213       N253   2.103       .  S
Co213       N229   2.069       .  S
Co213      Cl257   2.453   1_445  S
N214        C252   1.332       .  A
N214        N635   1.320       .  A
N214       Co215   2.055       .  S
Co215       N218   2.074       .  S
Co215       N235   2.080       .  S
Co215       N222   2.058       .  S
Co215      Cl671   2.423   1_455  S
C216       C1040   1.469   1_455  S
C216        C407   1.477       .  S
C216        N254   1.344       .  A
N217        N638   1.321       .  A
N217        N247   1.329       .  A
N217       Co250   2.096       .  S
N218       N1064   1.320   1_455  A
N218        N254   1.323       .  A
N219        C662   1.341       .  A
N219        N229   1.321       .  A
H220        C245   1.081       .  S
N221        N628   1.322   1_545  A
N221        N242   1.332       .  A
N222       N1068   1.320   1_455  A
N222        N227   1.318       .  A
C223        C251   1.466       .  S
C223        C404   1.469       .  S
C223       N1055   1.343       .  A
N224        C239   1.332       .  A
N224        N631   1.317   1_545  A
N224       Co246   2.047       .  S
C225       C1056   1.467   1_455  S
C225        N253   1.340       .  A
C225        H259   1.081       .  S
N226       C1036   1.345       .  A
N227       C1051   1.339   1_455  A
C228       C1053   1.464       .  S
C228        C399   1.474       .  S
C228        N249   1.347       .  A
N229        N649   1.323   1_545  A
N230        C256   1.349       .  A
N230        N646   1.319   1_545  A
N230       Co246   2.116       .  S
N231        C245   1.350       .  A
N231       N1037   1.320   1_455  A
N232        N644   1.320       .  A
N232        N260   1.327       .  A
N232       Co250   2.094       .  S
H233        C256   1.081       .  S
H234        C251   1.081       .  S
N235        N643   1.320       .  A
N236       N1046   1.321       .  A
N236       Co250   2.084       .  S
N237        N249   1.324       .  A
N237       N1081   1.320       .  A
N237       Co246   2.066       .  S
C238        C666   1.440       .  S
C238        C391   1.471       .  S
C238        N242   1.360   1_565  A
C239        C258   1.440       .  S
C239        H243   1.081       .  S
N240        C251   1.346       .  A
N240       N1050   1.321       .  A
N240       Co250   2.094       .  S
C244        C670   1.456       .  S
C244        C384   1.477       .  S
C244        N260   1.352       .  A
Co246     Cl1085   2.442       .  S
N247        C672   1.352       .  A
C248        C388   1.481       .  S
C248        N633   1.356       .  A
Co250     Cl1499   2.467       .  S
C252        C652   1.441       .  S
N253       N1065   1.320   1_455  A
C256        C658   1.478   1_545  S
Cl257      Co629   2.453   1_655  S
Cl257     Co1074   2.442   1_565  S
Cl257     Co1492   2.450       .  S
C258        C395   1.459       .  S
C258        N661   1.355   1_545  A
C261        C379   1.473       .  S
C261        N279   1.349       .  A
N262        N279   1.326       .  A
N262       Co299   2.088       .  S
C263        C301   1.466       .  S
C263        N288   1.345       .  A
C263        H308   1.081       .  S
H264        C305   1.081       .  S
C265        C269   1.465   1_556  S
C265        N289   1.344       .  A
C265        H294   1.081       .  S
Co266       N284   2.103       .  S
Co266       N274   2.097       .  S
Co266       N306   2.105       .  S
Co266       N282   2.110       .  S
N267        C305   1.339       .  A
N267       N1102   1.321       .  A
N267       Co268   2.087       .  S
Co268       N271   2.104       .  S
Co268       N288   2.102       .  S
Co268       N275   2.096       .  S
Co268      Cl931   2.450       .  S
C269        C371   1.475       .  S
N270       N1105   1.320       .  A
N270        N300   1.328       .  A
N270       Co303   2.098       .  S
N271        N307   1.328       .  A
N272       C1129   1.357   1_455  A
N272        N282   1.330       .  A
H273        C298   1.081       .  S
N274       N1095   1.321   1_455  A
N274        N295   1.328       .  A
N275        N280   1.327       .  A
C276        C304   1.465   1_554  S
C276        C368   1.482       .  S
N277        C292   1.332       .  A
N277       N1098   1.320   1_455  A
N277       Co299   2.059       .  S
C278        N306   1.347       .  A
C278        H312   1.081       .  S
C281        C375   1.478       .  S
C281        N302   1.349       .  A
N282       N1116   1.322   1_455  A
N283        C309   1.339       .  A
N283       N1113   1.320   1_455  A
N283       Co299   2.086       .  S
N284        C298   1.345       .  A
N285       N1111   1.320       .  A
N285        N313   1.326       .  A
N285       Co303   2.085       .  S
H286        C309   1.081       .  S
H287        C304   1.081       .  S
N288       N1110   1.321       .  A
N289       Co303   2.091       .  S
N290        N302   1.325       .  A
N290       Co299   2.079       .  S
C291       C1133   1.464   1_455  S
C291        C412   1.485       .  S
C291        N295   1.351       .  A
C292        C311   1.442       .  S
C292        H296   1.081       .  S
N293        C304   1.344       .  A
N293       Co303   2.093       .  S
C297       C1137   1.463       .  S
C297        C403   1.477       .  S
C297        N313   1.349       .  A
Co299      Cl310   2.446   1_455  S
N300       C1139   1.354       .  A
C301        C408   1.477       .  S
C301       N1100   1.346       .  A
Co303     Cl1138   2.465       .  S
C305       C1119   1.463       .  S
C309       C1125   1.465   1_455  S
Cl310      Co889   2.448   1_556  S
Cl310     Co1131   2.458       .  S
C311        C400   1.468       .  S
C311       N1128   1.357   1_455  A
C314        C351   1.462       .  S
C314        C396   1.486       .  S
C314        N746   1.352       .  A
N315        N332   1.325       .  A
N315        N751   1.319   1_545  A
N315       Co352   2.096       .  S
C316        C354   1.464   1_556  S
C316        N341   1.343       .  A
C316        H361   1.081       .  S
H317        C358   1.082       .  S
C318        C736   1.431       .  S
C318        N342   1.326       .  A
C318        H347   1.081       .  S
Co319       N337   2.097       .  S
Co319       N327   2.100       .  S
Co319       N359   2.107       .  S
Co319       N335   2.088       .  S
Co319      Cl570   2.452       .  S
N320        C358   1.341       .  A
N320       Co321   2.089       .  S
Co321       N324   2.093       .  S
Co321       N341   2.090       .  S
Co321       N328   2.095       .  S
Co321      Cl777   2.457       .  S
C322        C732   1.461       .  S
C322        C383   1.480       .  S
C322        N360   1.351       .  A
N323        N353   1.326       .  A
N323       Co356   2.102       .  S
N324        N756   1.320       .  A
N324        N360   1.327       .  A
N325        N335   1.324       .  A
H326        C351   1.082       .  S
N327        N348   1.328       .  A
N328        N760   1.321       .  A
N328        N333   1.326       .  A
C329        C357   1.477   1_565  S
C329        C387   1.484       .  S
C329        N747   1.341       .  A
N330        C345   1.346       .  A
N330       Co352   2.086       .  S
C331        C748   1.471       .  S
C331        N359   1.346       .  A
C331        H365   1.081       .  S
N332        C728   1.355   1_545  A
N333        C743   1.353       .  A
C334        C745   1.470   1_545  S
C334        C392   1.477       .  S
C334        N355   1.343       .  A
N336        C362   1.336       .  A
N336       Co352   2.076       .  S
N337        C351   1.344       .  A
N337        N729   1.320       .  A
N338        N366   1.326       .  A
N338       Co356   2.074       .  S
H339        C362   1.081       .  S
H340        C357   1.081       .  S
N342        N738   1.320   1_545  A
N342       Co356   2.041       .  S
N343        N355   1.323       .  A
N343        N773   1.319   1_545  A
N343       Co352   2.069       .  S
C344        C358   1.457       .  S
C344        C367   1.481       .  S
C345        H349   1.081       .  S
N346        C357   1.352       .  A
N346        N742   1.321   1_545  A
N346       Co356   2.121       .  S
C350        C380   1.465       .  S
C350        N366   1.351   1_554  A
N353        C364   1.349       .  A
C354        C376   1.478       .  S
Co356      Cl363   2.444   1_546  S
N359        N757   1.320       .  A
Cl363      Co526   2.438       .  S
Cl363      Co735   2.457   1_554  S
C364        C372   1.477       .  S
C367        C368   1.344   1_556  D
C368        H370   1.086       .  S
C371        C372   1.342   1_554  D
C372        H374   1.085       .  S
C375        C376   1.343   1_556  D
C376        H378   1.086       .  S
C379        C380   1.339   1_556  D
C379        H381   1.086       .  S
C383        C384   1.344       .  D
C383        H385   1.086       .  S
C384        H800   1.085       .  S
H386        C798   1.086       .  S
C387        C802   1.336   1_565  D
C387        H803   1.086       .  S
C388        C801   1.343       .  D
C388        H804   1.086       .  S
H389        C801   1.086       .  S
H390        C802   1.086       .  S
C391        C392   1.334   1_565  D
C391        H807   1.086       .  S
C392        H394   1.086       .  S
H393        C805   1.086       .  S
C395        C810   1.328   1_545  D
C395        H397   1.087       .  S
C396        C809   1.347       .  D
C396        H398   1.086       .  S
C399       C1228   1.338       .  D
C399        H401   1.086       .  S
C400       C1227   1.335   1_455  D
C400        H402   1.085       .  S
C403        C404   1.339       .  D
C403        H405   1.086       .  S
C404       H1234   1.085       .  S
H406       C1232   1.085   1_455  S
C407       C1236   1.337   1_455  D
C407       H1237   1.086       .  S
C408       C1235   1.341       .  D
C408       H1238   1.087       .  S
H409       C1235   1.086       .  S
H410       C1236   1.086       .  S
C411        C412   1.343   1_655  D
C411       H1241   1.085       .  S
C412        H414   1.086       .  S
H413       C1239   1.085       .  S
C415        C452   1.470   1_655  S
C415        C618   1.479       .  S
C415       N1261   1.344       .  A
N416        N433   1.323       .  A
N416       N1266   1.322       .  A
N416       Co453   2.084       .  S
C417        C455   1.478   1_565  S
C417        N442   1.352       .  A
C417        H462   1.081       .  S
H418        C459   1.081       .  S
C419       C1251   1.465       .  S
C419        N443   1.342       .  A
C419        H448   1.081       .  S
Co420       N438   2.108       .  S
Co420       N428   2.126       .  S
Co420       N460   2.108       .  S
Co420       N436   2.104       .  S
Co420      Cl464   2.472   1_455  S
N421        C459   1.326       .  A
N421       Co422   2.036       .  S
Co422       N425   2.113       .  S
Co422       N442   2.126       .  S
Co422       N429   2.057       .  S
C423       C1247   1.462   1_455  S
C423        C614   1.484       .  S
C423        N461   1.353       .  A
N424        N454   1.331       .  A
N424       Co457   2.119       .  S
N425       N1271   1.320   1_455  A
N425        N461   1.328       .  A
N426        N436   1.331       .  A
H427        C452   1.081       .  S
N428        N449   1.334       .  A
N429       N1275   1.321   1_455  A
N429        N434   1.319       .  A
C430        C458   1.465       .  S
C430        C611   1.462       .  S
C430       N1262   1.341       .  A
N431        C446   1.336       .  A
N431       Co453   2.075       .  S
C432       C1263   1.467   1_455  S
C432        N460   1.345       .  A
C432        H466   1.081       .  S
N433       C1243   1.344       .  A
N434       C1258   1.342   1_455  A
C435       C1260   1.463       .  S
C435        C606   1.477       .  S
C435        N456   1.349       .  A
N437        C463   1.343       .  A
N437       Co453   2.100       .  S
N438        C452   1.348       .  A
N438       N1244   1.322   1_455  A
N439        N467   1.324       .  A
N439       Co457   2.071       .  S
H440        C463   1.081       .  S
H441        C458   1.081       .  S
N443       N1253   1.320       .  A
N443       Co457   2.083       .  S
N444        N456   1.325       .  A
N444       N1288   1.322       .  A
N444       Co453   2.084       .  S
C445        C598   1.480       .  S
C445        N449   1.360       .  A
C446        C465   1.449       .  S
C446        H450   1.081       .  S
N447        C458   1.345       .  A
N447       N1257   1.320       .  A
N447       Co457   2.102       .  S
C451        C591   1.484       .  S
C451        N467   1.344       .  A
Co453     Cl1292   2.438       .  S
C455        C595   1.482       .  S
Co457      Cl878   2.464   1_565  S
N460       N1272   1.322   1_455  A
Cl464     Co1281   2.444       .  S
Cl464      Co871   2.455       .  S
C465        C602   1.471       .  S
C468        C712   1.465       .  S
C468        C586   1.464       .  S
C468        N486   1.340       .  A
N469        N486   1.319       .  A
N469        N698   1.319       .  A
N469       Co506   2.057       .  S
C470        C508   1.450       .  S
C470        N495   1.336       .  A
C470        H515   1.081       .  S
H471        C512   1.081       .  S
C472        C476   1.461       .  S
C472        N496   1.339       .  A
C472        H501   1.081       .  S
Co473       N491   2.102       .  S
Co473       N481   2.074       .  S
Co473       N513   2.082       .  S
Co473       N489   2.098       .  S
Co473      Cl724   2.465   1_554  S
N474        C512   1.348       .  A
N474       N1309   1.322       .  A
N474       Co475   2.117       .  S
Co475       N478   2.077       .  S
Co475       N495   2.073       .  S
Co475       N482   2.117       .  S
Co475     Cl1552   2.448   1_554  S
C476        C578   1.472       .  S
C476        N721   1.348       .  A
N477       N1312   1.320       .  A
N477        N507   1.326       .  A
N477       Co510   2.084       .  S
N478        N703   1.321   1_554  A
N478        N514   1.324       .  A
N479       C1336   1.353   1_455  A
N479        N489   1.329       .  A
H480        C505   1.081       .  S
N481       N1302   1.322   1_455  A
N481        N502   1.323       .  A
N482        N707   1.319   1_554  A
N482        N487   1.329       .  A
C483        C511   1.446       .  S
C483        C575   1.474       .  S
C483        N694   1.357       .  A
N484        C499   1.339       .  A
N484       N1305   1.319   1_455  A
N484       Co506   2.081       .  S
C485        C695   1.464   1_554  S
C485        N513   1.342       .  A
C485        H519   1.081       .  S
N487        C690   1.358   1_554  A
C488        C692   1.461       .  S
C488        C582   1.474       .  S
C488        N509   1.350       .  A
N489       N1323   1.322   1_455  A
N490        C516   1.336       .  A
N490       N1320   1.318   1_455  A
N490       Co506   2.069       .  S
N491        C505   1.347       .  A
N491        N676   1.318   1_554  A
N492       N1318   1.319       .  A
N492        N520   1.323       .  A
N492       Co510   2.073       .  S
H493        C516   1.081       .  S
H494        C511   1.081       .  S
N495       N1317   1.321       .  A
N496        N685   1.319       .  A
N496       Co510   2.076       .  S
N497        N509   1.325       .  A
N497        N720   1.320       .  A
N497       Co506   2.086       .  S
C498       C1340   1.470   1_455  S
C498        C619   1.480       .  S
C498        N502   1.345       .  A
C499        C518   1.452       .  S
C499        H503   1.082       .  S
N500        C511   1.336       .  A
N500        N689   1.321       .  A
N500       Co510   2.070       .  S
C504       C1344   1.462       .  S
C504        C610   1.469       .  S
C504        N520   1.345       .  A
C505        C675   1.469       .  S
Co506      Cl517   2.442   1_455  S
N507       C1346   1.352       .  A
C508        C615   1.479       .  S
C508       N1307   1.357       .  A
Co510     Cl1345   2.455       .  S
C512       C1326   1.471       .  S
N513        N704   1.318   1_554  A
N514        C683   1.346       .  A
C516       C1332   1.461   1_455  S
Cl517      Co680   2.458   1_655  S
Cl517     Co1510   2.442       .  S
Cl517     Co1338   2.457       .  S
C518        C607   1.474       .  S
C518       N1335   1.353   1_455  A
C521        C558   1.434       .  S
C521        C603   1.467       .  S
N522        N539   1.324       .  A
N522       Co559   2.083       .  S
C523        C561   1.462       .  S
C523        N548   1.343       .  A
C523        H568   1.081       .  S
H524        C565   1.081       .  S
C525        N549   1.333       .  A
C525        H554   1.081       .  S
Co526       N544   2.040       .  S
Co526       N534   2.067       .  S
Co526       N566   2.090       .  S
Co526       N542   2.056       .  S
N527        C565   1.345       .  A
N527        N741   1.320       .  A
N527       Co528   2.092       .  S
Co528       N531   2.126       .  S
Co528       N548   2.102       .  S
Co528       N535   2.061       .  S
C529        C590   1.479       .  S
C529        N567   1.363   1_545  A
N530        N744   1.320       .  A
N530        N560   1.324       .  A
N530       Co563   2.092       .  S
N531        N567   1.335       .  A
N532        C768   1.344       .  A
N532        N542   1.322       .  A
H533        C558   1.081       .  S
N534        N734   1.320   1_554  A
N534        N555   1.320       .  A
N535        N540   1.319       .  A
C536        C564   1.464       .  S
C536        C594   1.494       .  S
N537        C552   1.346       .  A
N537        N737   1.320   1_554  A
N537       Co559   2.097       .  S
C538        N566   1.341       .  A
C538        H572   1.081       .  S
C541        C599   1.486       .  S
C541        N562   1.348       .  A
N542        N755   1.320   1_554  A
N543        C569   1.337       .  A
N543        N752   1.320   1_554  A
N543       Co559   2.065       .  S
N544        C558   1.330       .  A
N545        N750   1.319       .  A
N545        N573   1.324       .  A
N545       Co563   2.083       .  S
H546        C569   1.081       .  S
H547        C564   1.082       .  S
N548        N749   1.320       .  A
N549       Co563   2.063       .  S
N550        N562   1.327       .  A
N550       Co559   2.088       .  S
C551        C565   1.469       .  S
C551        C574   1.476       .  S
C551        N762   1.343       .  A
C552        C778   1.469   1_554  S
C552        H556   1.081       .  S
N553        C564   1.346       .  A
N553       Co563   2.103       .  S
N555        C758   1.339       .  A
C557        C776   1.448       .  S
C557        C587   1.467       .  S
C557        N573   1.352       .  A
Co559      Cl777   2.461   1_554  S
N560        C571   1.347       .  A
C561        C583   1.471       .  S
C561        N739   1.346       .  A
Co563      Cl570   2.450       .  S
C569        C764   1.445       .  S
Cl570      Co766   2.458       .  S
C571        C759   1.461       .  S
C571        C579   1.471       .  S
C574        C575   1.336       .  D
C574        H783   1.087       .  S
C575        H577   1.086       .  S
H576        C781   1.086       .  S
C578        C579   1.341       .  D
C578        H787   1.085       .  S
C579        H581   1.085       .  S
H580        C785   1.086       .  S
C582        C583   1.341       .  D
C582        H791   1.086       .  S
C583        H585   1.085       .  S
H584        C789   1.085       .  S
C586        C587   1.334       .  D
C586        H588   1.087       .  S
C587        H796   1.086       .  S
H589        C794   1.086       .  S
C590        C591   1.336   1_545  D
C590        H592   1.086       .  S
C598        C599   1.340       .  D
C599        H601   1.086       .  S
C602        H604   1.087       .  S
C603        H605   1.087       .  S
C606       C1435   1.342       .  D
C606        H608   1.086       .  S
C607       C1434   1.338   1_455  D
C607        H609   1.086       .  S
C610        C611   1.335       .  D
C610        H612   1.086       .  S
C611       H1441   1.085       .  S
H613       C1439   1.085       .  S
C614       C1443   1.346   1_455  D
C614       H1444   1.086       .  S
C615       C1442   1.342       .  D
C615       H1445   1.085       .  S
H616       C1442   1.086       .  S
H617       C1443   1.085       .  S
C618        C619   1.339   1_655  D
C618       H1448   1.086       .  S
C619        H621   1.086       .  S
H620       C1446   1.086       .  S
C622        C659   1.470       .  S
C622        C825   1.472   1_455  S
C622       N1468   1.341   1_455  A
N623        N640   1.320       .  A
N623       N1473   1.321       .  A
N623       Co660   2.073       .  S
C624        C662   1.478   1_565  S
C624        N649   1.352       .  A
C624        H669   1.081       .  S
H625        C666   1.081       .  S
C626       C1458   1.458       .  S
C626        N650   1.337       .  A
C626        H655   1.081       .  S
Co627       N645   2.106       .  S
Co627       N635   2.112       .  S
Co627       N667   2.092       .  S
Co627       N643   2.106       .  S
Co627      Cl671   2.479   1_455  S
N628        C666   1.331       .  A
N628       Co629   2.057       .  S
Co629       N632   2.114       .  S
Co629       N649   2.126       .  S
Co629       N636   2.097       .  S
C630       C1454   1.460   1_455  S
C630        C821   1.484       .  S
C630        N668   1.354       .  A
N631        N661   1.325       .  A
N631       Co664   2.087       .  S
N632       N1478   1.319   1_455  A
N632        N668   1.329       .  A
N633        N643   1.331       .  A
H634        C659   1.081       .  S
N635        N656   1.330       .  A
N636       N1482   1.320   1_455  A
N636        N641   1.326       .  A
C637        C665   1.443       .  S
C637        C818   1.470       .  S
C637       N1469   1.357       .  A
N638        C653   1.344       .  A
N638       Co660   2.101       .  S
C639       C1470   1.464   1_455  S
C639        N667   1.342       .  A
C639        H673   1.081       .  S
N640       C1450   1.342       .  A
N641       C1465   1.356   1_455  A
C642       C1467   1.445       .  S
C642        C813   1.470       .  S
C642        N663   1.356       .  A
N644        C670   1.340       .  A
N644       Co660   2.082       .  S
N645        C659   1.349       .  A
N645       N1451   1.321   1_455  A
N646        N674   1.320       .  A
N646       Co664   2.048       .  S
H647        C670   1.082       .  S
H648        C665   1.081       .  S
N650       N1460   1.319       .  A
N650       Co664   2.063       .  S
N651        N663   1.327       .  A
N651       N1495   1.321       .  A
N651       Co660   2.106       .  S
C652        C805   1.470       .  S
C652        N656   1.359       .  A
C653        C672   1.459       .  S
C653        H657   1.081       .  S
N654        C665   1.336       .  A
N654       N1464   1.320       .  A
N654       Co664   2.065       .  S
C658        C798   1.477       .  S
C658        N674   1.336       .  A
Co660     Cl1499   2.441       .  S
C662        C802   1.483       .  S
Co664     Cl1085   2.447   1_565  S
N667       N1479   1.321   1_455  A
Cl671     Co1488   2.424       .  S
Cl671     Co1078   2.478       .  S
C672        C809   1.484       .  S
C675        C793   1.463   1_554  S
C675        N693   1.337   1_554  A
N676        N693   1.317       .  A
N676       Co713   2.044       .  S
C677        C715   1.458       .  S
C677        N702   1.340       .  A
C677        H722   1.081       .  S
H678        C719   1.081       .  S
C679        C683   1.469   1_556  S
C679        N703   1.347       .  A
C679        H708   1.081       .  S
Co680       N698   2.094       .  S
Co680       N688   2.077       .  S
Co680       N720   2.078       .  S
Co680       N696   2.093       .  S
N681        C719   1.342       .  A
N681       N1516   1.320       .  A
N681       Co682   2.097       .  S
Co682       N685   2.087       .  S
Co682       N702   2.089       .  S
Co682       N689   2.107       .  S
Co682     Cl1345   2.446       .  S
C683        C785   1.481       .  S
N684       N1519   1.318       .  A
N684        N714   1.319       .  A
N684       Co717   2.047       .  S
N685        N721   1.324       .  A
N686       C1543   1.352   1_455  A
N686        N696   1.328       .  A
H687        C712   1.081       .  S
N688       N1509   1.320   1_455  A
N688        N709   1.325       .  A
N689        N694   1.329       .  A
C690        C718   1.439       .  S
C690        C782   1.465       .  S
N691        C706   1.337       .  A
N691       N1512   1.318   1_455  A
N691       Co713   2.069       .  S
C692        N720   1.338       .  A
C692        H726   1.081       .  S
C695        C789   1.467       .  S
C695        N716   1.343       .  A
N696       N1530   1.321   1_455  A
N697        C723   1.331       .  A
N697       N1527   1.318   1_455  A
N697       Co713   2.044       .  S
N698        C712   1.344       .  A
N699       N1525   1.318       .  A
N699        N727   1.331       .  A
N699       Co717   2.121       .  S
H700        C723   1.081       .  S
H701        C718   1.081       .  S
N702       N1524   1.321       .  A
N703       Co717   2.110       .  S
N704        N716   1.321       .  A
N704       Co713   2.070       .  S
C705       C1547   1.466   1_455  S
C705        C826   1.479       .  S
C705        N709   1.347       .  A
C706        C725   1.450       .  S
C706        H710   1.081       .  S
N707        C718   1.330       .  A
N707       Co717   2.038       .  S
C711       C1551   1.436       .  S
C711        C817   1.465       .  S
C711        N727   1.360       .  A
Co713      Cl724   2.436       .  S
N714       C1553   1.339       .  A
C715        C822   1.476       .  S
C715       N1514   1.351       .  A
Co717     Cl1552   2.450       .  S
C719       C1533   1.466       .  S
C723       C1539   1.439       .  S
Cl724     Co1303   2.439   1_456  S
Cl724     Co1545   2.464   1_455  S
C725        C814   1.468       .  S
C725       N1542   1.353   1_455  A
C728        C765   1.439       .  S
C728        C810   1.459       .  S
N729        N746   1.327       .  A
N729       Co766   2.089       .  S
C730        C768   1.465   1_556  S
C730        N755   1.342       .  A
C730        H775   1.081       .  S
H731        C772   1.081       .  S
C732        N756   1.341       .  A
C732        H761   1.081       .  S
Co733       N751   2.047       .  S
Co733       N741   2.078       .  S
Co733       N773   2.095       .  S
Co733       N749   2.067       .  S
N734        C772   1.344       .  A
N734       Co735   2.092       .  S
Co735       N738   2.133       .  S
Co735       N755   2.104       .  S
Co735       N742   2.069       .  S
C736        C797   1.472       .  S
C736        N774   1.365   1_545  A
N737        N767   1.324       .  A
N737       Co770   2.084       .  S
N738        N774   1.336       .  A
N739        N749   1.323       .  A
H740        C765   1.081       .  S
N741        N762   1.322       .  A
N742        N747   1.321       .  A
C743        C771   1.460       .  S
C743        C801   1.485       .  S
N744        C759   1.340       .  A
N744       Co766   2.071       .  S
C745        N773   1.344       .  A
C745        H779   1.081       .  S
C748        C806   1.473       .  S
C748        N769   1.341       .  A
N750        C776   1.338       .  A
N750       Co766   2.073       .  S
N751        C765   1.332       .  A
N752        N780   1.325       .  A
N752       Co770   2.098       .  S
H753        C776   1.082       .  S
H754        C771   1.082       .  S
N756       Co770   2.088       .  S
N757        N769   1.321       .  A
N757       Co766   2.060       .  S
C758        C772   1.470   1_554  S
C758        C781   1.469       .  S
C759        H763   1.081       .  S
N760        C771   1.344       .  A
N760       Co770   2.091       .  S
C764        C794   1.468       .  S
C764        N780   1.355   1_554  A
N767        C778   1.346       .  A
C768        C790   1.469       .  S
Co770      Cl777   2.448       .  S
C778        C786   1.481       .  S
C781        C782   1.330   1_554  D
C782        H784   1.086       .  S
C785        C786   1.341   1_554  D
C786        H788   1.086       .  S
C789        C790   1.336   1_556  D
C790        H792   1.086       .  S
C793        C794   1.331   1_556  D
C793        H795   1.087       .  S
C797        C798   1.328   1_545  D
C797        H799   1.086       .  S
C805        C806   1.332       .  D
C806        H808   1.087       .  S
C809        H811   1.086       .  S
C810        H812   1.087       .  S
C813       C1642   1.332       .  D
C813        H815   1.086       .  S
C814       C1641   1.336   1_455  D
C814        H816   1.086       .  S
C817        C818   1.329       .  D
C817        H819   1.087       .  S
C818       H1648   1.086       .  S
H820       C1646   1.086       .  S
C821       C1650   1.346   1_455  D
C821       H1651   1.086       .  S
C822       C1649   1.346       .  D
C822       H1652   1.084       .  S
H823       C1649   1.086       .  S
H824       C1650   1.084       .  S
C825        C826   1.338   1_655  D
C825       H1655   1.085       .  S
C826        H828   1.086       .  S
H827       C1653   1.085       .  S
C829        C866   1.463       .  S
C829       C1032   1.474       .  S
N830        N847   1.324       .  A
N830       Co867   2.100       .  S
C831        C869   1.455       .  S
C831        N856   1.340       .  A
C831        H876   1.081       .  S
H832        C873   1.081       .  S
C833        N857   1.332       .  A
C833        H862   1.081       .  S
Co834       N852   2.078       .  S
Co834       N842   2.124       .  S
Co834       N874   2.106       .  S
Co834       N850   2.064       .  S
Co834      Cl878   2.461       .  S
N835        C873   1.330       .  A
N835       N1256   1.320       .  A
N835       Co836   2.057       .  S
Co836       N839   2.083       .  S
Co836       N856   2.086       .  S
Co836       N843   2.068       .  S
Co836     Cl1292   2.433       .  S
C837       C1028   1.474       .  S
C837        N875   1.348       .  A
N838       N1259   1.319       .  A
N838        N868   1.327       .  A
N838       Co871   2.096       .  S
N839        N875   1.325       .  A
N840       C1283   1.342       .  A
N840        N850   1.321       .  A
H841        C866   1.081       .  S
N842       N1249   1.319   1_545  A
N842        N863   1.333       .  A
N843        N848   1.320       .  A
C844        C872   1.462       .  S
C844       C1025   1.466       .  S
N845        C860   1.330       .  A
N845       N1252   1.319   1_545  A
N845       Co867   2.044       .  S
C846        N874   1.342       .  A
C846        H880   1.081       .  S
C849       C1020   1.477       .  S
C849        N870   1.347       .  A
N850       N1270   1.320   1_545  A
N851        C877   1.346       .  A
N851       N1267   1.320   1_545  A
N851       Co867   2.112       .  S
N852        C866   1.344       .  A
N853       N1265   1.318       .  A
N853        N881   1.321       .  A
N853       Co871   2.051       .  S
H854        C877   1.081       .  S
H855        C872   1.081       .  S
N856       N1264   1.321       .  A
N857       Co871   2.044       .  S
N858        N870   1.324       .  A
N858       Co867   2.068       .  S
C859       C1287   1.433       .  S
C859       C1012   1.466       .  S
C859        N863   1.362   1_565  A
C860        C879   1.435       .  S
C860        H864   1.081       .  S
N861        C872   1.344       .  A
N861       Co871   2.089       .  S
C865       C1291   1.469       .  S
C865       C1005   1.471       .  S
C865        N881   1.341       .  A
N868       C1293   1.352       .  A
C869       C1009   1.482       .  S
C869       N1254   1.355       .  A
C873       C1273   1.441       .  S
C877       C1279   1.474   1_545  S
Cl878     Co1250   2.437   1_545  S
C879       C1016   1.467       .  S
C879       N1282   1.361   1_545  A
C882       C1126   1.463       .  S
C882       C1000   1.470       .  S
C882        N900   1.345       .  A
N883        N900   1.323       .  A
N883       N1112   1.318       .  A
N883       Co920   2.075       .  S
C884        C922   1.471   1_655  S
C884        N909   1.345       .  A
C884        H929   1.081       .  S
H885        C926   1.081       .  S
C886        C890   1.467       .  S
C886        N910   1.345       .  A
C886        H915   1.081       .  S
Co887       N905   2.091       .  S
Co887       N895   2.093       .  S
Co887       N927   2.095       .  S
Co887       N903   2.091       .  S
Co887     Cl1138   2.465   1_554  S
N888        C926   1.339       .  A
N888       Co889   2.081       .  S
Co889       N892   2.102       .  S
Co889       N909   2.108       .  S
Co889       N896   2.092       .  S
C890        C992   1.479       .  S
C890       N1135   1.348       .  A
N891        N921   1.329       .  A
N891       Co924   2.099       .  S
N892       N1117   1.321   1_554  A
N892        N928   1.326       .  A
N893        N903   1.327       .  A
H894        C919   1.081       .  S
N895        N916   1.327       .  A
N896       N1121   1.321   1_554  A
N896        N901   1.327       .  A
C897        C925   1.463       .  S
C897        C989   1.484       .  S
C897       N1108   1.351       .  A
N898        C913   1.333       .  A
N898       Co920   2.063       .  S
C899       C1109   1.466   1_554  S
C899        N927   1.345       .  A
C899        H933   1.081       .  S
N901       C1104   1.352       .  A
C902       C1106   1.466       .  S
C902        C996   1.481       .  S
C902        N923   1.349       .  A
N904        C930   1.337       .  A
N904       Co920   2.075       .  S
N905        C919   1.342       .  A
N905       N1090   1.320   1_554  A
N906        N934   1.325       .  A
N906       Co924   2.085       .  S
H907        C930   1.081       .  S
H908        C925   1.081       .  S
N910       N1099   1.320       .  A
N910       Co924   2.095       .  S
N911        N923   1.325       .  A
N911       N1134   1.319       .  A
N911       Co920   2.082       .  S
C912       C1033   1.480       .  S
C912        N916   1.351       .  A
C913        C932   1.444       .  S
C913        H917   1.082       .  S
N914        C925   1.345       .  A
N914       N1103   1.320       .  A
N914       Co924   2.092       .  S
C918       C1024   1.473       .  S
C918        N934   1.349       .  A
C919       C1089   1.465   1_554  S
Co920      Cl931   2.444       .  S
C922       C1029   1.472       .  S
N927       N1118   1.320   1_554  A
N928       C1097   1.351       .  A
Cl931     Co1094   2.458       .  S
C932       C1021   1.471       .  S
C935        C972   1.457       .  S
C935       C1017   1.476       .  S
C935       N1367   1.351       .  A
N936        N953   1.330       .  A
N936       N1372   1.319   1_545  A
N936       Co973   2.114       .  S
C937        C975   1.467       .  S
C937        N962   1.346       .  A
C937        H982   1.081       .  S
H938        C979   1.082       .  S
C939       C1357   1.437       .  S
C939        N963   1.329       .  A
C939        H968   1.081       .  S
Co940       N958   2.086       .  S
Co940       N948   2.090       .  S
Co940       N980   2.098       .  S
Co940       N956   2.089       .  S
Co940     Cl1605   2.452   1_554  S
N941        C979   1.344       .  A
N941       N1155   1.322       .  A
N941       Co942   2.101       .  S
Co942       N945   2.109       .  S
Co942       N962   2.101       .  S
Co942       N949   2.100       .  S
Co942     Cl1398   2.459       .  S
C943       C1353   1.439       .  S
C943       C1004   1.466       .  S
C943        N981   1.357       .  A
N944       N1158   1.320       .  A
N944        N974   1.325       .  A
N944       Co977   2.096       .  S
N945       N1377   1.320       .  A
N945        N981   1.330       .  A
N946       C1182   1.349       .  A
N946        N956   1.325       .  A
H947        C972   1.082       .  S
N948       N1148   1.321   1_554  A
N948        N969   1.327       .  A
N949       N1381   1.321       .  A
N949        N954   1.326       .  A
C950        C978   1.475   1_565  S
C950       C1008   1.478       .  S
C950       N1368   1.341       .  A
N951        C966   1.342       .  A
N951       N1151   1.320   1_554  A
N951       Co973   2.074       .  S
C952       C1369   1.469       .  S
C952        N980   1.343       .  A
C952        H986   1.081       .  S
N953       C1349   1.361   1_545  A
N954       C1364   1.352       .  A
C955       C1366   1.473   1_545  S
C955       C1013   1.473       .  S
C955        N976   1.339       .  A
N956       N1169   1.321   1_554  A
N957        C983   1.338       .  A
N957       N1166   1.321   1_554  A
N957       Co973   2.089       .  S
N958        C972   1.341       .  A
N958       N1350   1.320       .  A
N959       N1164   1.320       .  A
N959        N987   1.327       .  A
N959       Co977   2.088       .  S
H960        C983   1.081       .  S
H961        C978   1.081       .  S
N962       N1163   1.321       .  A
N963       N1359   1.321   1_545  A
N963       Co977   2.055       .  S
N964        N976   1.321       .  A
N964       N1394   1.319   1_545  A
N964       Co973   2.054       .  S
C965        C979   1.462       .  S
C965        C988   1.484       .  S
C965       N1176   1.351       .  A
C966       C1192   1.462   1_554  S
C966        H970   1.081       .  S
N967        C978   1.350       .  A
N967       N1363   1.321   1_545  A
N967       Co977   2.113       .  S
N969       C1172   1.351   1_554  A
C971       C1190   1.446       .  S
C971       C1001   1.466       .  S
C971        N987   1.354       .  A
Co973     Cl1191   2.454       .  S
N974        C985   1.348       .  A
C975        C997   1.478       .  S
C975       N1153   1.346       .  A
Co977      Cl984   2.446   1_545  S
N980       N1378   1.320       .  A
C983       C1178   1.451       .  S
Cl984     Co1561   2.443       .  S
Cl984     Co1356   2.455       .  S
Cl984     Co1180   2.450   1_565  S
C985       C1173   1.465       .  S
C985        C993   1.480       .  S
C988        C989   1.347       .  D
C988       H1197   1.085       .  S
C989        H991   1.086       .  S
H990       C1195   1.085       .  S
C992        C993   1.342       .  D
C992       H1201   1.086       .  S
C993        H995   1.086       .  S
H994       C1199   1.085       .  S
C996        C997   1.342       .  D
C996       H1205   1.086       .  S
C997        H999   1.085       .  S
H998       C1203   1.085       .  S
C1000      C1001   1.336       .  D
C1000      H1002   1.086       .  S
C1001      H1210   1.085       .  S
H1003      C1208   1.085       .  S
C1004      C1005   1.331       .  D
C1004      H1006   1.086       .  S
C1005      H1421   1.086       .  S
H1007      C1419   1.086       .  S
C1008      C1423   1.335   1_565  D
C1008      H1424   1.086       .  S
C1009      C1422   1.345       .  D
C1009      H1425   1.086       .  S
H1010      C1422   1.086       .  S
H1011      C1423   1.086       .  S
C1012      C1013   1.328   1_565  D
C1012      H1428   1.086       .  S
C1013      H1015   1.086       .  S
H1014      C1426   1.085       .  S
C1016      C1431   1.326   1_545  D
C1016      H1018   1.087       .  S
C1017      C1430   1.341       .  D
C1017      H1019   1.086       .  S
C1020      H1022   1.086       .  S
C1021      H1023   1.085       .  S
C1024      C1025   1.339       .  D
C1024      H1026   1.086       .  S
C1032      C1033   1.343       .  D
C1033      H1035   1.086       .  S
C1036      C1073   1.466       .  S
C1036      C1239   1.473       .  S
N1037      N1054   1.321       .  A
N1037     Co1074   2.084       .  S
C1038      C1076   1.461       .  S
C1038      N1063   1.344       .  A
C1038      H1083   1.081       .  S
H1039      C1080   1.082       .  S
C1040      N1064   1.346       .  A
C1040      H1069   1.081       .  S
Co1041     N1059   2.087       .  S
Co1041     N1049   2.118       .  S
Co1041     N1081   2.100       .  S
Co1041     N1057   2.062       .  S
Co1041    Cl1085   2.452       .  S
N1042      C1080   1.337       .  A
N1042      N1463   1.319       .  A
N1042     Co1043   2.069       .  S
Co1043     N1046   2.094       .  S
Co1043     N1063   2.102       .  S
Co1043     N1050   2.072       .  S
Co1043    Cl1499   2.439       .  S
C1044      C1235   1.477       .  S
C1044      N1082   1.352       .  A
N1045      N1466   1.320       .  A
N1045      N1075   1.329       .  A
N1045     Co1078   2.101       .  S
N1046      N1082   1.327       .  A
N1047      C1490   1.338       .  A
N1047      N1057   1.320       .  A
H1048      C1073   1.081       .  S
N1049      N1456   1.321   1_545  A
N1049      N1070   1.332       .  A
N1050      N1055   1.320       .  A
C1051      C1079   1.468       .  S
C1051      C1232   1.465       .  S
N1052      C1067   1.331       .  A
N1052      N1459   1.317   1_545  A
N1052     Co1074   2.042       .  S
C1053      N1081   1.341       .  A
C1053      H1087   1.081       .  S
C1056      C1227   1.476       .  S
C1056      N1077   1.345       .  A
N1057      N1477   1.323   1_545  A
N1058      C1084   1.345       .  A
N1058      N1474   1.319   1_545  A
N1058     Co1074   2.104       .  S
N1059      C1073   1.347       .  A
N1060      N1472   1.320       .  A
N1060      N1088   1.330       .  A
N1060     Co1078   2.104       .  S
H1061      C1084   1.081       .  S
H1062      C1079   1.081       .  S
N1063      N1471   1.321       .  A
N1064     Co1078   2.100       .  S
N1065      N1077   1.324       .  A
N1065     Co1074   2.061       .  S
C1066      C1494   1.438       .  S
C1066      C1219   1.469       .  S
C1066      N1070   1.360   1_565  A
C1067      C1086   1.438       .  S
C1067      H1071   1.081       .  S
N1068      C1079   1.347       .  A
N1068     Co1078   2.100       .  S
C1072      C1498   1.449       .  S
C1072      C1212   1.474       .  S
C1072      N1088   1.355       .  A
N1075      C1500   1.355       .  A
C1076      C1216   1.491       .  S
C1076      N1461   1.354       .  A
C1080      C1480   1.450       .  S
C1084      C1486   1.473   1_545  S
Cl1085    Co1457   2.453   1_545  S
C1086      C1223   1.457       .  S
C1086      N1489   1.356   1_545  A
C1089      C1207   1.478       .  S
C1089      N1107   1.348       .  A
N1090      N1107   1.325       .  A
N1090     Co1127   2.086       .  S
C1091      C1129   1.447       .  S
C1091      N1116   1.336       .  A
C1091      H1136   1.081       .  S
H1092      C1133   1.081       .  S
C1093      C1097   1.462   1_556  S
C1093      N1117   1.342       .  A
C1093      H1122   1.081       .  S
Co1094     N1112   2.083       .  S
Co1094     N1102   2.092       .  S
Co1094     N1134   2.096       .  S
Co1094     N1110   2.077       .  S
N1095      C1133   1.340       .  A
N1095     Co1096   2.091       .  S
Co1096     N1099   2.083       .  S
Co1096     N1116   2.073       .  S
Co1096     N1103   2.098       .  S
C1097      C1199   1.480       .  S
N1098      N1128   1.331       .  A
N1098     Co1131   2.107       .  S
N1099      N1135   1.324       .  A
N1100      N1110   1.323       .  A
H1101      C1126   1.081       .  S
N1102      N1123   1.327       .  A
N1103      N1108   1.327       .  A
C1104      C1132   1.461   1_554  S
C1104      C1196   1.481       .  S
N1105      C1120   1.336       .  A
N1105     Co1127   2.069       .  S
C1106      N1134   1.343       .  A
C1106      H1140   1.081       .  S
C1109      C1203   1.478       .  S
C1109      N1130   1.347       .  A
N1111      C1137   1.339       .  A
N1111     Co1127   2.084       .  S
N1112      C1126   1.340       .  A
N1113      N1141   1.324       .  A
N1113     Co1131   2.074       .  S
H1114      C1137   1.081       .  S
H1115      C1132   1.081       .  S
N1117     Co1131   2.083       .  S
N1118      N1130   1.324       .  A
N1118     Co1127   2.080       .  S
C1119      C1240   1.480       .  S
C1119      N1123   1.350       .  A
C1120      C1139   1.448       .  S
C1120      H1124   1.081       .  S
N1121      C1132   1.341       .  A
N1121     Co1131   2.091       .  S
C1125      C1231   1.473       .  S
C1125      N1141   1.345       .  A
Co1127    Cl1138   2.441       .  S
C1129      C1236   1.476       .  S
C1139      C1228   1.470       .  S
C1142      C1179   1.454       .  S
C1142      C1224   1.475       .  S
C1142      N1574   1.353       .  A
N1143      N1160   1.325       .  A
N1143      N1579   1.318   1_545  A
N1143     Co1180   2.093       .  S
C1144      C1182   1.465   1_556  S
C1144      N1169   1.343       .  A
C1144      H1189   1.081       .  S
H1145      C1186   1.081       .  S
C1146      C1564   1.435       .  S
C1146      N1170   1.328       .  A
C1146      H1175   1.081       .  S
Co1147     N1165   2.078       .  S
Co1147     N1155   2.090       .  S
Co1147     N1187   2.093       .  S
Co1147     N1163   2.081       .  S
Co1147    Cl1398   2.446       .  S
N1148      C1186   1.341       .  A
N1148     Co1149   2.090       .  S
Co1149     N1152   2.091       .  S
Co1149     N1169   2.092       .  S
Co1149     N1156   2.099       .  S
Co1149    Cl1605   2.458       .  S
C1150      C1560   1.463       .  S
C1150      C1211   1.480       .  S
C1150      N1188   1.350       .  A
N1151      N1181   1.327       .  A
N1151     Co1184   2.110       .  S
N1152      N1584   1.321       .  A
N1152      N1188   1.326       .  A
N1153      N1163   1.323       .  A
H1154      C1179   1.082       .  S
N1155      N1176   1.326       .  A
N1156      N1588   1.322       .  A
N1156      N1161   1.329       .  A
C1157      C1185   1.480   1_565  S
C1157      C1215   1.482       .  S
C1157      N1575   1.338       .  A
N1158      C1173   1.344       .  A
N1158     Co1180   2.083       .  S
C1159      C1576   1.464       .  S
C1159      N1187   1.342       .  A
C1159      H1193   1.081       .  S
N1160      C1556   1.355   1_545  A
N1161      C1571   1.353       .  A
C1162      C1573   1.471   1_545  S
C1162      C1220   1.475       .  S
C1162      N1183   1.342       .  A
N1164      C1190   1.335       .  A
N1164     Co1180   2.071       .  S
N1165      C1179   1.341       .  A
N1165      N1557   1.320       .  A
N1166      N1194   1.329       .  A
N1166     Co1184   2.089       .  S
H1167      C1190   1.082       .  S
H1168      C1185   1.081       .  S
N1170      N1566   1.321   1_545  A
N1170     Co1184   2.050       .  S
N1171      N1183   1.322       .  A
N1171      N1601   1.319   1_545  A
N1171     Co1180   2.065       .  S
C1172      C1186   1.456       .  S
C1172      C1195   1.477       .  S
C1173      H1177   1.081       .  S
N1174      C1185   1.353       .  A
N1174      N1570   1.322   1_545  A
N1174     Co1184   2.129       .  S
C1178      C1208   1.474       .  S
C1178      N1194   1.354   1_554  A
N1181      C1192   1.351       .  A
C1182      C1204   1.479       .  S
Co1184    Cl1191   2.449   1_556  S
N1187      N1585   1.320       .  A
Cl1191    Co1354   2.441   1_545  S
Cl1191    Co1563   2.457   1_544  S
C1192      C1200   1.481       .  S
C1195      C1196   1.344   1_556  D
C1196      H1198   1.086       .  S
C1199      C1200   1.346   1_554  D
C1200      H1202   1.085       .  S
C1203      C1204   1.342   1_556  D
C1204      H1206   1.086       .  S
C1207      C1208   1.340   1_556  D
C1207      H1209   1.086       .  S
C1211      C1212   1.341       .  D
C1211      H1213   1.086       .  S
C1212      H1628   1.085       .  S
H1214      C1626   1.086       .  S
C1215      C1630   1.334   1_565  D
C1215      H1631   1.086       .  S
C1216      C1629   1.350       .  D
C1216      H1632   1.086       .  S
H1217      C1629   1.086       .  S
H1218      C1630   1.086       .  S
C1219      C1220   1.332   1_565  D
C1219      H1635   1.086       .  S
C1220      H1222   1.086       .  S
H1221      C1633   1.086       .  S
C1223      C1638   1.326   1_545  D
C1223      H1225   1.087       .  S
C1224      C1637   1.338       .  D
C1224      H1226   1.086       .  S
C1227      H1229   1.086       .  S
C1228      H1230   1.085       .  S
C1231      C1232   1.335       .  D
C1231      H1233   1.086       .  S
C1239      C1240   1.341       .  D
C1240      H1242   1.086       .  S
C1243      C1280   1.472       .  S
C1243      C1446   1.482       .  S
N1244      N1261   1.323       .  A
N1244     Co1281   2.082       .  S
C1245      C1283   1.474   1_565  S
C1245      N1270   1.349       .  A
C1245      H1290   1.081       .  S
H1246      C1287   1.081       .  S
C1247      N1271   1.341       .  A
C1247      H1276   1.081       .  S
Co1248     N1266   2.109       .  S
Co1248     N1256   2.123       .  S
Co1248     N1288   2.097       .  S
Co1248     N1264   2.106       .  S
Co1248    Cl1292   2.475       .  S
N1249      C1287   1.326       .  A
N1249     Co1250   2.035       .  S
Co1250     N1253   2.104       .  S
Co1250     N1270   2.116       .  S
Co1250     N1257   2.052       .  S
C1251      C1442   1.486       .  S
C1251      N1289   1.351       .  A
N1252      N1282   1.331       .  A
N1252     Co1285   2.118       .  S
N1253      N1289   1.328       .  A
N1254      N1264   1.331       .  A
H1255      C1280   1.081       .  S
N1256      N1277   1.335       .  A
N1257      N1262   1.318       .  A
C1258      C1286   1.464       .  S
C1258      C1439   1.463   1_655  S
N1259      C1274   1.339       .  A
N1259     Co1281   2.076       .  S
C1260      N1288   1.341       .  A
C1260      H1294   1.081       .  S
C1263      C1434   1.473       .  S
C1263      N1284   1.344       .  A
N1265      C1291   1.343       .  A
N1265     Co1281   2.097       .  S
N1266      C1280   1.349       .  A
N1267      N1295   1.322       .  A
N1267     Co1285   2.059       .  S
H1268      C1291   1.081       .  S
H1269      C1286   1.081       .  S
N1271     Co1285   2.072       .  S
N1272      N1284   1.322       .  A
N1272     Co1281   2.069       .  S
C1273      C1426   1.476       .  S
C1273      N1277   1.361       .  A
C1274      C1293   1.452       .  S
C1274      H1278   1.081       .  S
N1275      C1286   1.344       .  A
N1275     Co1285   2.101       .  S
C1279      C1419   1.479       .  S
C1279      N1295   1.341       .  A
C1283      C1423   1.480       .  S
C1293      C1430   1.473       .  S
C1296      C1540   1.462       .  S
C1296      C1414   1.466       .  S
C1296      N1314   1.344       .  A
N1297      N1314   1.321       .  A
N1297      N1526   1.319       .  A
N1297     Co1334   2.070       .  S
C1298      C1336   1.457       .  S
C1298      N1323   1.341       .  A
C1298      H1343   1.082       .  S
H1299      C1340   1.081       .  S
C1300      C1304   1.465       .  S
C1300      N1324   1.341       .  A
C1300      H1329   1.081       .  S
Co1301     N1319   2.109       .  S
Co1301     N1309   2.076       .  S
Co1301     N1341   2.080       .  S
Co1301     N1317   2.115       .  S
Co1301    Cl1552   2.460   1_554  S
N1302      C1340   1.347       .  A
N1302     Co1303   2.113       .  S
Co1303     N1306   2.089       .  S
Co1303     N1323   2.091       .  S
Co1303     N1310   2.117       .  S
C1304      C1406   1.474       .  S
C1304      N1549   1.346       .  A
N1305      N1335   1.326       .  A
N1305     Co1338   2.087       .  S
N1306      N1531   1.322   1_554  A
N1306      N1342   1.324       .  A
N1307      N1317   1.332       .  A
H1308      C1333   1.081       .  S
N1309      N1330   1.324       .  A
N1310      N1535   1.322   1_554  A
N1310      N1315   1.330       .  A
C1311      C1339   1.443       .  S
C1311      C1403   1.471       .  S
C1311      N1522   1.357       .  A
N1312      C1327   1.339       .  A
N1312     Co1334   2.084       .  S
C1313      C1523   1.462   1_554  S
C1313      N1341   1.341       .  A
C1313      H1347   1.081       .  S
N1315      C1518   1.357   1_554  A
C1316      C1520   1.461       .  S
C1316      C1410   1.473       .  S
C1316      N1337   1.349       .  A
N1318      C1344   1.337       .  A
N1318     Co1334   2.077       .  S
N1319      C1333   1.345       .  A
N1319      N1504   1.320   1_554  A
N1320      N1348   1.325       .  A
N1320     Co1338   2.083       .  S
H1321      C1344   1.081       .  S
H1322      C1339   1.081       .  S
N1324      N1513   1.320       .  A
N1324     Co1338   2.084       .  S
N1325      N1337   1.325       .  A
N1325      N1548   1.320       .  A
N1325     Co1334   2.087       .  S
C1326      C1447   1.484       .  S
C1326      N1330   1.346       .  A
C1327      C1346   1.454       .  S
C1327      H1331   1.082       .  S
N1328      C1339   1.334       .  A
N1328      N1517   1.321       .  A
N1328     Co1338   2.064       .  S
C1332      C1438   1.471       .  S
C1332      N1348   1.347       .  A
C1333      C1503   1.469   1_554  S
Co1334    Cl1345   2.442       .  S
C1336      C1443   1.480       .  S
N1341      N1532   1.320   1_554  A
N1342      C1511   1.348   1_554  A
Cl1345    Co1508   2.456       .  S
C1346      C1435   1.474       .  S
C1349      C1386   1.437       .  S
C1349      C1431   1.468       .  S
N1350      N1367   1.324       .  A
N1350     Co1387   2.080       .  S
C1351      C1389   1.461       .  S
C1351      N1376   1.342       .  A
C1351      H1396   1.081       .  S
H1352      C1393   1.081       .  S
C1353      N1377   1.331       .  A
C1353      H1382   1.081       .  S
Co1354     N1372   2.046       .  S
Co1354     N1362   2.081       .  S
Co1354     N1394   2.101       .  S
Co1354     N1370   2.071       .  S
N1355      C1393   1.345       .  A
N1355      N1569   1.320       .  A
N1355     Co1356   2.095       .  S
Co1356     N1359   2.124       .  S
Co1356     N1376   2.097       .  S
Co1356     N1363   2.069       .  S
C1357      C1418   1.473       .  S
C1357      N1395   1.362   1_545  A
N1358      N1572   1.319       .  A
N1358      N1388   1.323       .  A
N1358     Co1391   2.086       .  S
N1359      N1395   1.334       .  A
N1360      C1596   1.348       .  A
N1360      N1370   1.324       .  A
H1361      C1386   1.081       .  S
N1362      N1562   1.320   1_554  A
N1362      N1383   1.322       .  A
N1363      N1368   1.320       .  A
C1364      C1392   1.461       .  S
C1364      C1422   1.485       .  S
N1365      C1380   1.344       .  A
N1365      N1565   1.321   1_554  A
N1365     Co1387   2.088       .  S
C1366      N1394   1.344       .  A
C1366      H1400   1.081       .  S
C1369      C1427   1.485       .  S
C1369      N1390   1.347       .  A
N1370      N1583   1.320   1_554  A
N1371      C1397   1.334       .  A
N1371      N1580   1.321   1_554  A
N1371     Co1387   2.058       .  S
N1372      C1386   1.331       .  A
N1373      N1578   1.319       .  A
N1373      N1401   1.321       .  A
N1373     Co1391   2.071       .  S
H1374      C1397   1.081       .  S
H1375      C1392   1.082       .  S
N1376      N1577   1.320       .  A
N1377     Co1391   2.052       .  S
N1378      N1390   1.326       .  A
N1378     Co1387   2.084       .  S
C1379      C1393   1.470       .  S
C1379      C1402   1.473       .  S
C1379      N1590   1.341       .  A
C1380      C1606   1.466   1_554  S
C1380      H1384   1.081       .  S
N1381      C1392   1.344       .  A
N1381     Co1391   2.091       .  S
N1383      C1586   1.343       .  A
C1385      C1604   1.456       .  S
C1385      C1415   1.471       .  S
C1385      N1401   1.349       .  A
Co1387    Cl1605   2.459   1_554  S
N1388      C1399   1.345       .  A
C1389      C1411   1.470       .  S
C1389      N1567   1.347       .  A
Co1391    Cl1398   2.444       .  S
C1397      C1592   1.441       .  S
Cl1398    Co1594   2.460       .  S
C1399      C1587   1.464       .  S
C1399      C1407   1.472       .  S
C1402      C1403   1.333       .  D
C1402      H1611   1.087       .  S
C1403      H1405   1.086       .  S
H1404      C1609   1.087       .  S
C1406      C1407   1.339       .  D
C1406      H1615   1.086       .  S
C1407      H1409   1.086       .  S
H1408      C1613   1.085       .  S
C1410      C1411   1.341       .  D
C1410      H1619   1.085       .  S
C1411      H1413   1.085       .  S
H1412      C1617   1.085       .  S
C1414      C1415   1.339       .  D
C1414      H1416   1.087       .  S
C1415      H1624   1.086       .  S
H1417      C1622   1.086       .  S
C1418      C1419   1.332   1_545  D
C1418      H1420   1.086       .  S
C1426      C1427   1.338       .  D
C1427      H1429   1.086       .  S
C1430      H1432   1.087       .  S
C1431      H1433   1.087       .  S
C1434      H1436   1.087       .  S
C1435      H1437   1.085       .  S
C1438      C1439   1.337   1_655  D
C1438      H1440   1.086       .  S
C1446      C1447   1.340       .  D
C1447      H1449   1.086       .  S
C1450      C1487   1.469       .  S
C1450      C1653   1.472       .  S
N1451      N1468   1.319       .  A
N1451     Co1488   2.066       .  S
C1452      C1490   1.480   1_565  S
C1452      N1477   1.354       .  A
C1452      H1497   1.081       .  S
H1453      C1494   1.081       .  S
C1454      N1478   1.338       .  A
C1454      H1483   1.081       .  S
Co1455     N1473   2.103       .  S
Co1455     N1463   2.088       .  S
Co1455     N1495   2.061       .  S
Co1455     N1471   2.102       .  S
Co1455    Cl1499   2.467       .  S
N1456      C1494   1.330       .  A
N1456     Co1457   2.054       .  S
Co1457     N1460   2.115       .  S
Co1457     N1477   2.131       .  S
Co1457     N1464   2.097       .  S
C1458      C1649   1.482       .  S
C1458      N1496   1.354       .  A
N1459      N1489   1.325       .  A
N1459     Co1492   2.091       .  S
N1460      N1496   1.329       .  A
N1461      N1471   1.331       .  A
H1462      C1487   1.081       .  S
N1463      N1484   1.325       .  A
N1464      N1469   1.326       .  A
C1465      C1493   1.447       .  S
C1465      C1646   1.472       .  S
N1466      C1481   1.336       .  A
N1466     Co1488   2.071       .  S
C1467      N1495   1.336       .  A
C1467      H1501   1.082       .  S
C1470      C1641   1.469       .  S
C1470      N1491   1.344       .  A
N1472      C1498   1.336       .  A
N1472     Co1488   2.071       .  S
N1473      C1487   1.348       .  A
N1474      N1502   1.321       .  A
N1474     Co1492   2.052       .  S
H1475      C1498   1.082       .  S
H1476      C1493   1.081       .  S
N1478     Co1492   2.066       .  S
N1479      N1491   1.322       .  A
N1479     Co1488   2.071       .  S
C1480      C1633   1.468       .  S
C1480      N1484   1.353       .  A
C1481      C1500   1.448       .  S
C1481      H1485   1.081       .  S
N1482      C1493   1.338       .  A
N1482     Co1492   2.071       .  S
C1486      C1626   1.473       .  S
C1486      N1502   1.339       .  A
C1490      C1630   1.482       .  S
C1500      C1637   1.471       .  S
C1503      C1621   1.461       .  S
C1503      N1521   1.337       .  A
N1504      N1521   1.317       .  A
N1504     Co1541   2.036       .  S
C1505      C1543   1.457       .  S
C1505      N1530   1.340       .  A
C1505      H1550   1.081       .  S
H1506      C1547   1.081       .  S
C1507      C1511   1.468       .  S
C1507      N1531   1.347       .  A
C1507      H1536   1.081       .  S
Co1508     N1526   2.087       .  S
Co1508     N1516   2.076       .  S
Co1508     N1548   2.077       .  S
Co1508     N1524   2.089       .  S
N1509      C1547   1.341       .  A
N1509     Co1510   2.098       .  S
Co1510     N1513   2.081       .  S
Co1510     N1530   2.087       .  S
Co1510     N1517   2.110       .  S
C1511      C1613   1.482   1_556  S
N1512      N1542   1.325       .  A
N1512     Co1545   2.086       .  S
N1513      N1549   1.323       .  A
N1514      N1524   1.327       .  A
H1515      C1540   1.081       .  S
N1516      N1537   1.324       .  A
N1517      N1522   1.330       .  A
C1518      C1546   1.447       .  S
C1518      C1610   1.476       .  S
N1519      C1534   1.347       .  A
N1519     Co1541   2.107       .  S
C1520      N1548   1.338       .  A
C1520      H1554   1.081       .  S
C1523      C1617   1.476       .  S
C1523      N1544   1.349       .  A
N1525      C1551   1.329       .  A
N1525     Co1541   2.033       .  S
N1526      C1540   1.343       .  A
N1527      N1555   1.331       .  A
N1527     Co1545   2.112       .  S
H1528      C1551   1.081       .  S
H1529      C1546   1.082       .  S
N1531     Co1545   2.106       .  S
N1532      N1544   1.325       .  A
N1532     Co1541   2.097       .  S
C1533      C1654   1.477       .  S
C1533      N1537   1.346       .  A
C1534      C1553   1.471       .  S
C1534      H1538   1.081       .  S
N1535      C1546   1.336       .  A
N1535     Co1545   2.067       .  S
C1539      C1645   1.467       .  S
C1539      N1555   1.358   1_455  A
Co1541    Cl1552   2.443       .  S
C1543      C1650   1.477       .  S
C1553      C1642   1.469       .  S
C1556      C1593   1.437       .  S
C1556      C1638   1.456       .  S
N1557      N1574   1.325       .  A
N1557     Co1594   2.090       .  S
C1558      C1596   1.463   1_556  S
C1558      N1583   1.343       .  A
C1558      H1603   1.081       .  S
H1559      C1600   1.081       .  S
C1560      N1584   1.340       .  A
C1560      H1589   1.081       .  S
Co1561     N1579   2.045       .  S
Co1561     N1569   2.073       .  S
Co1561     N1601   2.095       .  S
Co1561     N1577   2.068       .  S
N1562      C1600   1.347       .  A
N1562     Co1563   2.093       .  S
Co1563     N1566   2.121       .  S
Co1563     N1583   2.101       .  S
Co1563     N1570   2.062       .  S
C1564      C1625   1.468       .  S
C1564      N1602   1.361   1_545  A
N1565      N1595   1.326       .  A
N1565     Co1598   2.099       .  S
N1566      N1602   1.333       .  A
N1567      N1577   1.323       .  A
H1568      C1593   1.081       .  S
N1569      N1590   1.321       .  A
N1570      N1575   1.320       .  A
C1571      C1599   1.465       .  S
C1571      C1629   1.493       .  S
N1572      C1587   1.344       .  A
N1572     Co1594   2.082       .  S
C1573      N1601   1.344       .  A
C1573      H1607   1.081       .  S
C1576      C1634   1.468       .  S
C1576      N1597   1.343       .  A
N1578      C1604   1.343       .  A
N1578     Co1594   2.087       .  S
N1579      C1593   1.331       .  A
N1580      N1608   1.326       .  A
N1580     Co1598   2.099       .  S
H1581      C1604   1.082       .  S
H1582      C1599   1.082       .  S
N1584     Co1598   2.087       .  S
N1585      N1597   1.322       .  A
N1585     Co1594   2.067       .  S
C1586      C1600   1.470   1_554  S
C1586      C1609   1.477       .  S
C1587      H1591   1.081       .  S
N1588      C1599   1.346       .  A
N1588     Co1598   2.107       .  S
C1592      C1622   1.463       .  S
C1592      N1608   1.355   1_554  A
N1595      C1606   1.350       .  A
C1596      C1618   1.476       .  S
Co1598    Cl1605   2.452       .  S
C1606      C1614   1.484       .  S
C1609      C1610   1.336   1_554  D
C1610      H1612   1.086       .  S
C1613      C1614   1.344   1_554  D
C1614      H1616   1.086       .  S
C1617      C1618   1.342   1_556  D
C1618      H1620   1.085       .  S
C1621      C1622   1.329   1_556  D
C1621      H1623   1.087       .  S
C1625      C1626   1.329   1_545  D
C1625      H1627   1.086       .  S
C1633      C1634   1.336       .  D
C1634      H1636   1.087       .  S
C1637      H1639   1.087       .  S
C1638      H1640   1.087       .  S
C1641      H1643   1.087       .  S
C1642      H1644   1.087       .  S
C1645      C1646   1.332   1_455  D
C1645      H1647   1.087       .  S
C1653      C1654   1.338       .  D
C1654      H1656   1.086       .  S
