geometry optimzed in LAMMPS
_audit_creation_date              2020-12-01 
_audit_creation_method            'lammps2cif' 
_symmetry_space_group_name_H-M    'P1' 
_symmetry_Int_Tables_number       1 
_symmetry_cell_setting            triclinic 
loop_ 
_symmetry_equiv_pos_as_xyz 
  x,y,z 
_cell_length_a                    39.45375365 
_cell_length_b                    32.61909000984604 
_cell_length_c                    30.706521223285836 
_cell_angle_alpha                 89.996527810524 
_cell_angle_beta                  89.98497389278955 
_cell_angle_gamma                 90.10975726963939 
loop_ 
_atom_site_label 
_atom_site_type_symbol 
_atom_site_fract_x 
_atom_site_fract_y 
_atom_site_fract_z 
_atom_site_charge 
In1        In  0.44135497  0.32492990  0.28270190     1.36900
C2          C  0.39783344  0.37776736  0.31307200     0.76600
O3          O  0.47423326  0.36167808  0.23463257    -0.61800
O4          O  0.43491152  0.32324480  0.20931402    -0.52700
C5          C  0.48954862  0.28359365  0.26363246     0.69300
O6          O  0.49294889  0.31753566  0.28451865    -0.47600
C7          C  0.45468884  0.26788217  0.34276562     0.74000
O8          O  0.42967395  0.38192618  0.31730863    -0.59400
O9          O  0.42973212  0.26393986  0.31645531    -0.49500
O10         O  0.38804078  0.34653400  0.29155912    -0.55900
C11         C  0.46230998  0.34300991  0.20156016     0.84200
O12         O  0.45958246  0.27190217  0.25272847    -0.57800
O13         O  0.46582831  0.30445439  0.34590757    -0.61000
C14         C  0.02711564  0.18938615  0.35544604     0.85500
C15         C  0.50824205  0.15875963  0.32817683    -0.54700
C16         C  0.47377189  0.15958198  0.33403241     0.08500
C17         C  0.46149978  0.18986061  0.36873847     0.19400
C18         C  0.51070170  0.23076037  0.35045717    -0.55400
C19         C  0.47602696  0.23172131  0.35645237     0.08600
C20         C  0.51536288  0.17642988  0.40462944    -0.54900
C21         C  0.48016953  0.17657110  0.40990175     0.09100
H22         H  0.01920653  0.13732568  0.30484201     0.13700
H23         H  0.43352521  0.19050890  0.37280970    -0.00600
H24         H  0.02295246  0.25838325  0.33769043     0.14000
H25         H  0.03083745  0.17113843  0.42955160     0.13800
C26         C  0.06963593  0.32811179  0.09544829     0.85500
C27         C  0.08266844  0.33993325  0.04832931    -0.54700
C28         C  0.11782796  0.33955460  0.04299397     0.08500
C29         C  0.13652372  0.32651490  0.08436738     0.19400
C30         C  0.08719553  0.28573350  0.10262123    -0.55400
C31         C  0.12192164  0.28461684  0.09670489     0.08600
C32         C  0.08974029  0.35777998  0.12469364    -0.54900
C33         C  0.12410811  0.35690859  0.11900415     0.09100
H34         H  0.06574959  0.34625584  0.02136180     0.13700
H35         H  0.16451044  0.32592945  0.08044541    -0.00600
H36         H  0.07359605  0.25890281  0.11283750     0.14000
H37         H  0.07776493  0.37917507  0.14689760     0.13800
In38       In  0.15597678  0.18973460  0.16906000     1.36500
C39         C  0.19913663  0.13618309  0.13979490     0.76600
O40         O  0.13193793  0.21151991  0.10578038    -0.61800
O41         O  0.16799305  0.25125457  0.13632802    -0.52700
C42         C  0.10729743  0.22994792  0.18771193     0.69300
O43         O  0.10425301  0.19606794  0.16659720    -0.47600
C44         C  0.13543146  0.17169325  0.25046795     0.74000
O45         O  0.16732173  0.13244300  0.13494942    -0.59400
O46         O  0.16258540  0.19185857  0.24250382    -0.49500
O47         O  0.20904762  0.16756108  0.16097527    -0.55900
C48         C  0.14312644  0.24800377  0.10977286     0.84200
O49         O  0.13707215  0.24186781  0.19909471    -0.57800
O50         O  0.12353013  0.15287659  0.21748500    -0.61000
C51         C  0.02836757  0.32961697  0.10551595     0.85500
C52         C  0.51648335  0.33729616  0.15345959    -0.54700
C53         C  0.48133736  0.33783300  0.15911168     0.08500
C54         C  0.46220671  0.32504088  0.11812459     0.19400
C55         C  0.51050460  0.28305837  0.09944099    -0.55400
C56         C  0.47585882  0.28292666  0.10579595     0.08600
C57         C  0.50919068  0.35507878  0.07694447    -0.54900
C58         C  0.47478384  0.35494035  0.08320374     0.09100
H59         H  0.03273594  0.34418348  0.18040301     0.13700
H60         H  0.43425488  0.32494458  0.12249125    -0.00600
H61         H  0.02193130  0.26169451  0.08558149     0.14000
H62         H  0.02271057  0.38367600  0.05687927     0.13800
In63       In  0.43989962  0.19019656  0.03307183     1.36900
C64         C  0.39600835  0.13754444  0.06324636     0.76600
O65         O  0.46401910  0.21048489  0.09653319    -0.61800
O66         O  0.42902067  0.25161463  0.06605230    -0.52700
C67         C  0.49000247  0.22879562  0.01489195     0.69300
O68         O  0.49194410  0.19493631  0.03620399    -0.47600
C69         C  0.46087672  0.17099025  0.45211727     0.74000
O70         O  0.42781511  0.13311572  0.06721790    -0.59400
O71         O  0.43428361  0.19192291  0.46062046    -0.49500
O72         O  0.38637184  0.16905497  0.04213256    -0.55900
C73         C  0.45371203  0.24728052  0.09268886     0.84200
O74         O  0.46215606  0.23939154  0.50434668    -0.57800
O75         O  0.47215797  0.15088581  0.48457039    -0.61000
C76         C  0.06849165  0.18908753  0.34549293     0.85500
C77         C  0.08789227  0.15840152  0.37441875    -0.54700
C78         C  0.12230465  0.15826040  0.36872659     0.08500
C79         C  0.13544049  0.18865389  0.33441946     0.19400
C80         C  0.08714980  0.23071185  0.35319272    -0.55400
C81         C  0.12181462  0.23088455  0.34708233     0.08600
C82         C  0.08128147  0.17731729  0.29823796    -0.54900
C83         C  0.11645462  0.17658322  0.29296084     0.09100
H84         H  0.07544482  0.13715492  0.39640555     0.13700
H85         H  0.16342935  0.18845573  0.33045828    -0.00600
H86         H  0.07424599  0.25800937  0.36402618     0.14000
H87         H  0.06425260  0.17191048  0.27111992     0.13800
In88       In  0.15700941  0.32515234  0.41889056     1.36900
C89         C  0.20050357  0.37852300  0.39029020     0.76600
O90         O  0.12376764  0.36231686  0.46616548    -0.61800
O91         O  0.16410019  0.32416664  0.99284247    -0.52700
C92         C  0.10952164  0.28358449  0.43907286     0.69300
O93         O  0.10597325  0.31687670  0.41716963    -0.47600
C94         C  0.14365144  0.26718791  0.35961650     0.74000
O95         O  0.16875003  0.38223180  0.38474470    -0.59400
O96         O  0.16870625  0.26373966  0.38581991    -0.49500
O97         O  0.21011158  0.34723995  0.41175965    -0.55900
C98         C  0.13688141  0.34418824  0.00047965     0.84200
O99         O  0.13954041  0.27242796  0.45022366    -0.57800
O100        O  0.13269560  0.30374625  0.35581704    -0.61000
C101        C  0.32021170  0.43744879  0.35721559     0.85500
C102        C  0.33365998  0.42658588  0.40439061    -0.54700
C103        C  0.36897011  0.42659162  0.40896063     0.08500
C104        C  0.38735413  0.43835326  0.36704769     0.19400
C105        C  0.33832745  0.47914331  0.34845108    -0.55400
C106        C  0.37304935  0.47993234  0.35361792     0.08600
C107        C  0.33975272  0.40627105  0.32885727    -0.54900
C108        C  0.37432495  0.40700366  0.33379840     0.09100
H109        H  0.31699708  0.42063193  0.43169709     0.13700
H110        H  0.41537273  0.43886520  0.37062058    -0.00600
H111        H  0.32484239  0.50608914  0.33826900     0.14000
H112        H  0.32732145  0.38432109  0.30765796     0.13800
In113      In  0.40523517  0.07862834  0.28370706     1.36900
C114        C  0.44969392  0.13091172  0.31335986     0.76600
O115        O  0.38382336  0.05598498  0.34807058    -0.61800
O116        O  0.41710264  0.51399341  0.31082892    -0.52700
C117        C  0.35241833  0.04360892  0.26906260     0.69300
O118        O  0.35239104  0.07741521  0.29064699    -0.47600
C119        C  0.38572925  0.09393188  0.20118643     0.74000
O120        O  0.41794215  0.13590543  0.31743402    -0.59400
O121        O  0.41199695  0.07269023  0.21038746    -0.49500
O122        O  0.45888309  0.09929561  0.29216216    -0.55900
C123        C  0.39423067  0.51642245  0.34022862     0.84200
O124        O  0.38087576  0.02907258  0.25644327    -0.57800
O125        O  0.37470455  0.11507383  0.23299099    -0.61000
C126        C  0.27688088  0.07686147  0.09662094     0.85500
C127        C  0.25701741  0.10699815  0.12572277    -0.54700
C128        C  0.22258556  0.10649775  0.11987350     0.08500
C129        C  0.20994175  0.07593081  0.08550853     0.19400
C130        C  0.25880257  0.03484910  0.10404871    -0.55400
C131        C  0.22413883  0.03404385  0.09817727     0.08600
C132        C  0.26395976  0.08857699  0.04943741    -0.54900
C133        C  0.22878250  0.08853999  0.04410121     0.09100
H134        H  0.26921007  0.12848612  0.14768127     0.13700
H135        H  0.18196060  0.07550329  0.08149992    -0.00600
H136        H  0.27207996  0.00780362  0.11445235     0.14000
H137        H  0.28095479  0.09466446  0.02243320     0.13800
In138      In  0.19045073  0.43871498  0.17130320     1.36900
C139        C  0.14757138  0.38584473  0.14012912     0.76600
O140        O  0.22353972  0.40191090  0.21895088    -0.61800
O141        O  0.18399540  0.43947856  0.24480822    -0.52700
C142        C  0.23793957  0.48074515  0.19111727     0.69300
O143        O  0.24151352  0.44694578  0.17013609    -0.47600
C144        C  0.20277475  0.99770606  0.11161987     0.74000
O145        O  0.17941604  0.38178330  0.13616970    -0.59400
O146        O  0.17809939  0.00127873  0.13841649    -0.49500
O147        O  0.13756053  0.41681267  0.16186374    -0.55900
C148        C  0.21154351  0.42005076  0.25228041     0.84200
O149        O  0.20997280  0.99314879  0.20031267    -0.57800
O150        O  0.21389199  0.96122754  0.10792216    -0.61000
C151        C  0.31827868  0.07726347  0.10649568     0.85500
C152        C  0.33787587  0.10874330  0.07850395    -0.54700
C153        C  0.37241027  0.10823913  0.08381864     0.08500
C154        C  0.38529839  0.07681615  0.11709278     0.19400
C155        C  0.33650227  0.03584773  0.09744635    -0.55400
C156        C  0.37116556  0.03518728  0.10306846     0.08600
C157        C  0.33132834  0.08786085  0.15391036    -0.54900
C158        C  0.36655081  0.08825231  0.15893064     0.09100
H159        H  0.32550183  0.13055593  0.05713978     0.13700
H160        H  0.41328988  0.07651144  0.12098410    -0.00600
H161        H  0.32307448  0.00902713  0.08647845     0.14000
H162        H  0.31443408  0.09339863  0.18110516     0.13800
In163      In  0.40634802  0.43558142  0.03333244     1.36900
C164        C  0.45091374  0.38374817  0.06274131     0.76600
O165        O  0.37854507  0.39929471  0.48240965    -0.61800
O166        O  0.41384466  0.44444885  0.46036446    -0.52700
C167        C  0.35126358  0.46533098  0.01969224     0.69300
O168        O  0.35285716  0.43202602  0.04200625    -0.47600
C169        C  0.39233602  0.99878066  0.08958523     0.74000
O170        O  0.41919438  0.37880654  0.06715216    -0.59400
O171        O  0.41516474  0.00120573  0.06012300    -0.49500
O172        O  0.46014745  0.41543013  0.04162746    -0.55900
C173        C  0.38859294  0.42145490  0.45087113     0.84200
O174        O  0.37379530  0.97939639  0.50697766    -0.57800
O175        O  0.38263889  0.96232969  0.09739674    -0.61000
C176        C  0.27869801  0.43758924  0.34739522     0.85500
C177        C  0.26586009  0.42533735  0.30020903    -0.54700
C178        C  0.23069708  0.42514420  0.29468967     0.08500
C179        C  0.21179558  0.43810490  0.33577995     0.19400
C180        C  0.26053528  0.47959562  0.35436313    -0.55400
C181        C  0.22589338  0.48010304  0.34804541     0.08600
C182        C  0.25865668  0.40771690  0.37679610    -0.54900
C183        C  0.22423212  0.40805121  0.37060168     0.09100
H184        H  0.28289120  0.41920162  0.27328808     0.13700
H185        H  0.18383003  0.43842705  0.33159308    -0.00600
H186        H  0.27360274  0.50666224  0.36528419     0.14000
H187        H  0.27070440  0.38654238  0.39916314     0.13800
In188      In  0.18766983  0.07565952  0.42174734     1.36900
C189        C  0.14527698  0.12868429  0.38975791     0.76600
O190        O  0.21468249  0.05633542  0.36001277    -0.61800
O191        O  0.17884188  0.51177771  0.38696352    -0.52700
C192        C  0.23377453  0.03249979  0.44392810     0.69300
O193        O  0.23836878  0.06622020  0.42316277    -0.47600
C194        C  0.20976571  0.09365531  0.00163083     0.74000
O195        O  0.17719015  0.13250648  0.38632418    -0.59400
O196        O  0.18243868  0.07384690  0.99359359    -0.49500
O197        O  0.13484253  0.09760312  0.41108883    -0.55900
C198        C  0.20416940  0.51600208  0.36126572     0.84200
O199        O  0.20322098  0.02141798  0.45291966    -0.57800
O200        O  0.22067708  0.11290983  0.46903257    -0.61000
C201        C  0.29121452  0.46154654  0.50738460    -0.02800
C202        C  0.32133997  0.48485328  0.50573982     0.06900
C203        C  0.31862542  0.01969565  0.48514081    -0.02900
C204        C  0.29411677  0.03005330  0.45596941    -0.02900
C205        C  0.26243476  0.01018901  0.45903092     0.07000
C206        C  0.26385908  0.47414037  0.48256942    -0.03100
Br207      Br  0.22290124  0.44095157  0.48382355    -0.01600
Br208      Br  0.28607061  0.41244308  0.54262361    -0.01700
Br209      Br  0.30653115  0.07135670  0.41253263    -0.01700
Br210      Br  0.35799326  0.06206707  0.98712584    -0.01700
C211        C  0.32271885  0.49125415  0.23241584    -0.02800
C212        C  0.32185214  0.02413888  0.25550474     0.06900
C213        C  0.29120978  0.04603530  0.25869250    -0.02900
C214        C  0.26519982  0.03622740  0.23058461    -0.02900
C215        C  0.26711983  0.50277076  0.20506759     0.07000
C216        C  0.29833783  0.48213514  0.20239024    -0.03100
Br217      Br  0.30994686  0.44203463  0.15764282    -0.01600
Br218      Br  0.36008691  0.45253923  0.23810514    -0.01700
Br219      Br  0.22551355  0.07148528  0.22954589    -0.01700
Br220      Br  0.28298956  0.08821951  0.30196429    -0.01700
C221        C  0.05785208  0.21229418  0.00440853    -0.02800
C222        C  0.02801567  0.23550804  0.50446038     0.06900
C223        C  0.02471517  0.27233569  0.48049734    -0.02900
C224        C  0.04918808  0.28221452  0.45090738    -0.02900
C225        C  0.08044872  0.26166557  0.45344049     0.07000
C226        C  0.08474083  0.22579992  0.47854249    -0.03100
Br227      Br  0.12596036  0.19297000  0.97861563    -0.01600
Br228      Br  0.06213568  0.16008183  0.03421072    -0.01700
Br229      Br  0.03778947  0.32397401  0.40767625    -0.01700
Br230      Br  0.47758782  0.31714504  0.47614618    -0.01700
C231        C  0.08269327  0.28672837  0.22776317    -0.02800
C232        C  0.07809314  0.25205749  0.20108363     0.06900
C233        C  0.04665041  0.23202482  0.19745933    -0.02900
C234        C  0.02197846  0.24109744  0.22726694    -0.02900
C235        C  0.02613683  0.27609001  0.25388428     0.07000
C236        C  0.05703429  0.29776004  0.25584520    -0.03100
Br237      Br  0.06610358  0.34157826  0.29699934    -0.01600
Br238      Br  0.12287696  0.32127658  0.22495442    -0.01700
Br239      Br  0.47380235  0.19182615  0.22778899    -0.01700
Br240      Br  0.03546394  0.19308259  0.15145600    -0.01700
In241      In  0.43947354  0.32253459  0.78087570     1.36900
C242        C  0.39706258  0.37598689  0.81193210     0.76600
O243        O  0.47291801  0.35990543  0.73420216    -0.61800
O244        O  0.43349460  0.32254469  0.70735357    -0.52700
C245        C  0.48658266  0.28027280  0.76029976     0.69300
O246        O  0.49039470  0.31393898  0.78142358    -0.47600
C247        C  0.45401603  0.26630254  0.84112416     0.74000
O248        O  0.42895503  0.37944589  0.81589622    -0.59400
O249        O  0.42844967  0.26200176  0.81584623    -0.49500
O250        O  0.38660229  0.34499666  0.79049229    -0.55900
C251        C  0.46113722  0.34213580  0.70050683     0.84200
O252        O  0.45639280  0.26891813  0.74979650    -0.57800
O253        O  0.46522135  0.30289508  0.84338027    -0.61000
C254        C  0.02727041  0.18847647  0.85660110     0.85500
C255        C  0.50809916  0.15708606  0.82777072    -0.54700
C256        C  0.47366502  0.15792431  0.83364473     0.08500
C257        C  0.46129523  0.18877504  0.86775080     0.19400
C258        C  0.51032252  0.22950191  0.84835769    -0.55400
C259        C  0.47565221  0.23039726  0.85459736     0.08600
C260        C  0.51518540  0.17638744  0.90387763    -0.54900
C261        C  0.47997656  0.17661031  0.90922464     0.09100
H262        H  0.01999584  0.13515580  0.80727056     0.13700
H263        H  0.43331977  0.18938746  0.87182229    -0.00600
H264        H  0.02238894  0.25696717  0.83732765     0.14000
H265        H  0.03117491  0.17216480  0.93113117     0.13800
C266        C  0.06900371  0.32728676  0.59464504     0.85500
C267        C  0.08179462  0.33964070  0.54759503    -0.54700
C268        C  0.11691889  0.33959520  0.54207103     0.08500
C269        C  0.13588553  0.32627781  0.58309615     0.19400
C270        C  0.08688413  0.28501091  0.60126788    -0.55400
C271        C  0.12156503  0.28418996  0.59510133     0.08600
C272        C  0.08921595  0.35687718  0.62418071    -0.54900
C273        C  0.12365625  0.35631215  0.61814783     0.09100
H274        H  0.06475862  0.34593556  0.52074051     0.13700
H275        H  0.16384864  0.32583561  0.57887809    -0.00600
H276        H  0.07357959  0.25800208  0.61165007     0.14000
H277        H  0.07725567  0.37795370  0.64673556     0.13800
In278      In  0.15617469  0.19102445  0.66888694     1.36500
C279        C  0.19909958  0.13685102  0.64049422     0.76600
O280        O  0.13181513  0.21129332  0.60527292    -0.61800
O281        O  0.16814444  0.25164685  0.63438097    -0.52700
C282        C  0.10798760  0.23207213  0.68724084     0.69300
O283        O  0.10485159  0.19804989  0.66644725    -0.47600
C284        C  0.13513151  0.17322157  0.75040084     0.74000
O285        O  0.16725942  0.13312990  0.63594588    -0.59400
O286        O  0.16227752  0.19343850  0.74250238    -0.49500
O287        O  0.20918283  0.16854882  0.66100066    -0.55900
C288        C  0.14304098  0.24785326  0.60827761     0.84200
O289        O  0.13783927  0.24419117  0.69816209    -0.57800
O290        O  0.12324366  0.15460667  0.71728880    -0.61000
C291        C  0.02757288  0.32791397  0.60456101     0.85500
C292        C  0.51588515  0.33725950  0.65329859    -0.54700
C293        C  0.48066196  0.33748680  0.65837383     0.08500
C294        C  0.46203628  0.32484840  0.61699025     0.19400
C295        C  0.51071886  0.28330159  0.59878204    -0.55400
C296        C  0.47605025  0.28285541  0.60476489     0.08600
C297        C  0.50932662  0.35550057  0.57686097    -0.54900
C298        C  0.47488831  0.35516932  0.58259627     0.09100
H299        H  0.03151068  0.34296934  0.67938665     0.13700
H300        H  0.43403985  0.32454060  0.62083895    -0.00600
H301        H  0.02225543  0.25966998  0.58466732     0.14000
H302        H  0.02077618  0.38171121  0.55571800     0.13800
In303      In  0.44106151  0.18829451  0.53391161     1.36900
C304        C  0.39655103  0.13623612  0.56366093     0.76600
O305        O  0.46487971  0.21004856  0.59709559    -0.61800
O306        O  0.42964684  0.25011689  0.56550789    -0.52700
C307        C  0.49152822  0.22624254  0.51546233     0.69300
O308        O  0.49339404  0.19254968  0.53712055    -0.47600
C309        C  0.46060270  0.17226816  0.95159257     0.74000
O310        O  0.42829554  0.13155329  0.56836148    -0.59400
O311        O  0.43390790  0.19327703  0.95944835    -0.49500
O312        O  0.38737838  0.16772959  0.54224171    -0.55900
C313        C  0.45429851  0.24664010  0.59232018     0.84200
O314        O  0.46057802  0.24197950  0.00388920    -0.57800
O315        O  0.47166270  0.15272053  0.98452838    -0.61000
C316        C  0.06863062  0.18893073  0.84639005     0.85500
C317        C  0.08855468  0.15863882  0.87516559    -0.54700
C318        C  0.12294266  0.15900932  0.86903929     0.08500
C319        C  0.13549908  0.18956168  0.83451709     0.19400
C320        C  0.08690350  0.23086491  0.85389104    -0.55400
C321        C  0.12154367  0.23153456  0.84736207     0.08600
C322        C  0.08123448  0.17738978  0.79896961    -0.54900
C323        C  0.11637017  0.17736320  0.79320945     0.09100
H324        H  0.07643157  0.13735942  0.89742777     0.13700
H325        H  0.16346092  0.18978336  0.83024694    -0.00600
H326        H  0.07376632  0.25791349  0.86491961     0.14000
H327        H  0.06405373  0.17169662  0.77208614     0.13800
In328      In  0.15760861  0.32522616  0.91936445     1.36900
C329        C  0.20098740  0.37860114  0.88959965     0.76600
O330        O  0.12493985  0.36243235  0.96716564    -0.61800
O331        O  0.16323335  0.32465200  0.49216168    -0.52700
C332        C  0.11010222  0.28364214  0.94006477     0.69300
O333        O  0.10648872  0.31726264  0.91873147    -0.47600
C334        C  0.14331458  0.26786087  0.85986274     0.74000
O335        O  0.16917726  0.38236162  0.88474188    -0.59400
O336        O  0.16880735  0.26422974  0.88533332    -0.49500
O337        O  0.21073892  0.34733065  0.91101581    -0.55900
C338        C  0.13585434  0.34439080  0.49958764     0.84200
O339        O  0.14020014  0.27207152  0.95039019    -0.57800
O340        O  0.13217912  0.30439721  0.85677280    -0.61000
C341        C  0.32055461  0.43721245  0.85597150     0.85500
C342        C  0.33384060  0.42633527  0.90321051    -0.54700
C343        C  0.36912583  0.42576210  0.90787138     0.08500
C344        C  0.38769096  0.43700890  0.86588757     0.19400
C345        C  0.33913217  0.47859221  0.84706512    -0.55400
C346        C  0.37389060  0.47883497  0.85228627     0.08600
C347        C  0.33968587  0.40570261  0.82774463    -0.54900
C348        C  0.37419764  0.40579491  0.83272017     0.09100
H349        H  0.31708563  0.42086992  0.93055043     0.13700
H350        H  0.41571103  0.43696499  0.86946898    -0.00600
H351        H  0.32588681  0.50573394  0.83689869     0.14000
H352        H  0.32700376  0.38389710  0.80662247     0.13800
In353      In  0.40491856  0.07773859  0.78290073     1.36900
C354        C  0.44959868  0.12931145  0.81301259     0.76600
O355        O  0.38467210  0.05347667  0.84715793    -0.61800
O356        O  0.41860524  0.51258250  0.81010610    -0.52700
C357        C  0.35015364  0.04646896  0.76960963     0.69300
O358        O  0.35159759  0.07992426  0.79169460    -0.47600
C359        C  0.38606962  0.09321767  0.70040846     0.74000
O360        O  0.41789220  0.13431222  0.81735273    -0.59400
O361        O  0.41180927  0.07112458  0.70977835    -0.49500
O362        O  0.45870108  0.09791788  0.79138758    -0.55900
C363        C  0.39548659  0.51514146  0.83920717     0.84200
O364        O  0.37783714  0.03093186  0.75597723    -0.57800
O365        O  0.37563635  0.11514927  0.73188743    -0.61000
C366        C  0.27646790  0.07724256  0.59675080     0.85500
C367        C  0.25680717  0.10710327  0.62641742    -0.54700
C368        C  0.22235306  0.10686897  0.62073438     0.08500
C369        C  0.20946352  0.07679766  0.58606228     0.19400
C370        C  0.25821391  0.03524781  0.60368598    -0.55400
C371        C  0.22356102  0.03468380  0.59787190     0.08600
C372        C  0.26333252  0.08967742  0.54978591    -0.54900
C373        C  0.22808608  0.08987812  0.54473005     0.09100
H374        H  0.26915018  0.12838782  0.64846012     0.13700
H375        H  0.18146052  0.07652916  0.58230157    -0.00600
H376        H  0.27128291  0.00805635  0.61396843     0.14000
H377        H  0.28022197  0.09599095  0.52273291     0.13800
In378      In  0.19135340  0.43807769  0.66965997     1.36900
C379        C  0.14754246  0.38526127  0.63893386     0.76600
O380        O  0.22388656  0.40117803  0.71793480    -0.61800
O381        O  0.18470872  0.43969839  0.74310914    -0.52700
C382        C  0.23984757  0.47907336  0.68919788     0.69300
O383        O  0.24297362  0.44522732  0.66807591    -0.47600
C384        C  0.20207307  0.99833250  0.61082947     0.74000
O385        O  0.17934861  0.38132541  0.63408770    -0.59400
O386        O  0.17690576  0.00196999  0.63684555    -0.49500
O387        O  0.13802790  0.41616662  0.66109983    -0.55900
C388        C  0.21198694  0.41987476  0.75099273     0.84200
O389        O  0.20702534  0.99516397  0.70073315    -0.57800
O390        O  0.21341246  0.96189445  0.60770065    -0.61000
C391        C  0.31797219  0.07711848  0.60649877     0.85500
C392        C  0.33791090  0.10840706  0.57857997    -0.54700
C393        C  0.37249054  0.10724430  0.58380288     0.08500
C394        C  0.38503518  0.07554257  0.61685909     0.19400
C395        C  0.33578944  0.03537491  0.59744802    -0.55400
C396        C  0.37044688  0.03417581  0.60295333     0.08600
C397        C  0.33127403  0.08753013  0.65383933    -0.54900
C398        C  0.36653447  0.08739525  0.65859841     0.09100
H399        H  0.32575728  0.13053894  0.55737695     0.13700
H400        H  0.41302527  0.07473276  0.62069900    -0.00600
H401        H  0.32217483  0.00877449  0.58651196     0.14000
H402        H  0.31455667  0.09349922  0.68110209     0.13800
In403      In  0.40737093  0.43726085  0.53367076     1.36900
C404        C  0.45134588  0.38459943  0.56258019     0.76600
O405        O  0.37823476  0.39792636  0.98118396    -0.61800
O406        O  0.41350001  0.44350337  0.96012090    -0.52700
C407        C  0.35249779  0.46735225  0.51985081     0.69300
O408        O  0.35421280  0.43453014  0.54289748    -0.47600
C409        C  0.39134370  0.99755039  0.58940309     0.74000
O410        O  0.41959723  0.38018048  0.56711066    -0.59400
O411        O  0.41406070  0.99973077  0.55981690    -0.49500
O412        O  0.46093311  0.41633037  0.54177923    -0.55900
C413        C  0.38845168  0.42043315  0.95000920     0.84200
O414        O  0.37641918  0.98332323  0.00571338    -0.57800
O415        O  0.38181719  0.96115073  0.59774280    -0.61000
C416        C  0.27909599  0.43759097  0.84609512     0.85500
C417        C  0.26621732  0.42530385  0.79894900    -0.54700
C418        C  0.23105719  0.42513271  0.79346435     0.08500
C419        C  0.21219067  0.43824727  0.83459740     0.19400
C420        C  0.26109849  0.47966225  0.85294113    -0.55400
C421        C  0.22645600  0.48032919  0.84668170     0.08600
C422        C  0.25904120  0.40779799  0.87555232    -0.54900
C423        C  0.22461944  0.40813785  0.86947602     0.09100
H424        H  0.28321791  0.41913775  0.77200828     0.13700
H425        H  0.18421871  0.43859580  0.83047846    -0.00600
H426        H  0.27430203  0.50668703  0.86356682     0.14000
H427        H  0.27109773  0.38662578  0.89792038     0.13800
In428      In  0.18923467  0.07627988  0.92003703     1.36900
C429        C  0.14636103  0.12964206  0.88963528     0.76600
O430        O  0.21504481  0.05698089  0.85728592    -0.61800
O431        O  0.17951088  0.51276919  0.88513673    -0.52700
C432        C  0.23632818  0.03374482  0.93999987     0.69300
O433        O  0.24038835  0.06796724  0.91988160    -0.47600
C434        C  0.20863727  0.09506034  0.50255422     0.74000
O435        O  0.17823759  0.13383673  0.88591723    -0.59400
O436        O  0.18096425  0.07565983  0.49531785    -0.49500
O437        O  0.13630903  0.09818142  0.91060139    -0.55900
C438        C  0.20498944  0.51660951  0.85963851     0.84200
O439        O  0.20603428  0.02205286  0.94934569    -0.57800
O440        O  0.22178805  0.11248484  0.96871243    -0.61000
C441        C  0.28988109  0.46103074  0.00747783    -0.02800
C442        C  0.32027479  0.48368521  0.00612652     0.06900
C443        C  0.32097100  0.02272595  0.98103809    -0.02900
C444        C  0.29672109  0.03145848  0.95085695    -0.02900
C445        C  0.26517657  0.01142062  0.95434704     0.07000
C446        C  0.26321700  0.47342962  0.98131447    -0.03100
Br447      Br  0.22221793  0.44036739  0.98093445    -0.01600
Br448      Br  0.28333236  0.41398185  0.04520593    -0.01700
Br449      Br  0.30883653  0.07123899  0.90594525    -0.01700
Br450      Br  0.35626161  0.05823113  0.49157824    -0.01700
C451        C  0.32489281  0.48937752  0.72993920    -0.02800
C452        C  0.31908687  0.02789201  0.75648432     0.06900
C453        C  0.28875111  0.05041443  0.75887448    -0.02900
C454        C  0.26225671  0.03948752  0.73179986    -0.02900
C455        C  0.26917854  0.50099097  0.70301657     0.07000
C456        C  0.30037476  0.48045008  0.69998038    -0.03100
Br457      Br  0.31178886  0.44123209  0.65445774    -0.01600
Br458      Br  0.36206764  0.45051731  0.73569671    -0.01700
Br459      Br  0.22188168  0.07353602  0.73172637    -0.01700
Br460      Br  0.28178682  0.09490393  0.79966161    -0.01700
C461        C  0.05821321  0.21252824  0.50440037    -0.02800
C462        C  0.02821964  0.23638480  0.00549648     0.06900
C463        C  0.02550757  0.27347728  0.98193912    -0.02900
C464        C  0.04980469  0.28252513  0.95187636    -0.02900
C465        C  0.08098330  0.26185042  0.95459661     0.07000
C466        C  0.08492540  0.22584338  0.97956723    -0.03100
Br467      Br  0.12569018  0.19281798  0.47663969    -0.01600
Br468      Br  0.06458992  0.16312097  0.53870393    -0.01700
Br469      Br  0.03810586  0.32287935  0.90741078    -0.01700
Br470      Br  0.47653063  0.31928248  0.97425664    -0.01700
C471        C  0.08283666  0.28789040  0.72853798    -0.02800
C472        C  0.07864395  0.25366044  0.70103780     0.06900
C473        C  0.04759557  0.23258828  0.69777911    -0.02900
C474        C  0.02343901  0.23992678  0.72864718    -0.02900
C475        C  0.02659046  0.27522071  0.75478673     0.07000
C476        C  0.05688488  0.29803388  0.75666298    -0.03100
Br477      Br  0.06455445  0.34202015  0.79796934    -0.01600
Br478      Br  0.12277790  0.32285706  0.72702956    -0.01700
Br479      Br  0.47097841  0.18848984  0.72502045    -0.01700
Br480      Br  0.03626661  0.19379754  0.65165463    -0.01700
In481      In  0.44044123  0.82763075  0.28434316     1.36900
C482        C  0.39700398  0.88097308  0.31367999     0.76600
O483        O  0.47048034  0.86533828  0.23399106    -0.61800
O484        O  0.43284589  0.82325017  0.21119930    -0.52700
C485        C  0.49159195  0.79180726  0.26546945     0.69300
O486        O  0.49276215  0.82468996  0.28849476    -0.47600
C487        C  0.45415018  0.76847703  0.34189534     0.74000
O488        O  0.42883927  0.88518802  0.31783536    -0.59400
O489        O  0.42938065  0.76515844  0.31522493    -0.49500
O490        O  0.38716299  0.84900380  0.29349888    -0.55900
C491        C  0.45903337  0.84476212  0.20195540     0.84200
O492        O  0.46253428  0.77811906  0.25372752    -0.57800
O493        O  0.46457222  0.80510911  0.34708131    -0.61000
C494        C  0.02916694  0.68756370  0.35639182     0.85500
C495        C  0.50853951  0.65889407  0.32782511    -0.54700
C496        C  0.47404394  0.65949411  0.33391729     0.08500
C497        C  0.46175190  0.69053887  0.36789253     0.19400
C498        C  0.51050577  0.73152433  0.34778898    -0.55400
C499        C  0.47586769  0.73224556  0.35438989     0.08600
C500        C  0.51593472  0.67875226  0.40363393    -0.54900
C501        C  0.48078851  0.67857333  0.40917413     0.09100
H502        H  0.02120995  0.63677567  0.30425822     0.13700
H503        H  0.43380413  0.69098143  0.37229214    -0.00600
H504        H  0.02425032  0.75660716  0.33836900     0.14000
H505        H  0.03322737  0.66971423  0.43059759     0.13800
C506        C  0.07009320  0.82642774  0.09697428     0.85500
C507        C  0.08343573  0.83793527  0.04999062    -0.54700
C508        C  0.11871737  0.83824446  0.04532152     0.08500
C509        C  0.13724934  0.82604412  0.08703320     0.19400
C510        C  0.08827211  0.78469998  0.10503837    -0.55400
C511        C  0.12300911  0.78416964  0.09994786     0.08600
C512        C  0.08960691  0.85731688  0.12576431    -0.54900
C513        C  0.12416482  0.85685742  0.12080841     0.09100
H514        H  0.06670720  0.84390993  0.02272938     0.13700
H515        H  0.16526135  0.82582871  0.08334426    -0.00600
H516        H  0.07483997  0.75753262  0.11457247     0.14000
H517        H  0.07715675  0.87899553  0.14720488     0.13800
In518      In  0.15497299  0.68510670  0.16841291     1.36500
C519        C  0.19975472  0.63301288  0.13888883     0.76600
O520        O  0.13469424  0.71119513  0.10462247    -0.61800
O521        O  0.16672274  0.74970888  0.14288456    -0.52700
C522        C  0.09896085  0.71368101  0.18091923     0.69300
O523        O  0.10111059  0.68043578  0.15859125    -0.47600
C524        C  0.13813321  0.67098276  0.25242534     0.74000
O525        O  0.16802376  0.62779447  0.13483248    -0.59400
O526        O  0.16291179  0.69411269  0.24147470    -0.49500
O527        O  0.20879686  0.66508862  0.15940811    -0.55900
C528        C  0.14414783  0.74759797  0.11311162     0.84200
O529        O  0.12621868  0.72948891  0.19516036    -0.57800
O530        O  0.12763346  0.64812137  0.22172898    -0.61000
C531        C  0.02860825  0.82600947  0.10681762     0.85500
C532        C  0.51325710  0.83926754  0.15430268    -0.54700
C533        C  0.47807790  0.83893472  0.15968545     0.08500
C534        C  0.45925702  0.82553307  0.11860797     0.19400
C535        C  0.50847207  0.78487396  0.10024557    -0.55400
C536        C  0.47378639  0.78378361  0.10608826     0.08600
C537        C  0.50595279  0.85703299  0.07813293    -0.54900
C538        C  0.47146326  0.85600463  0.08403917     0.09100
H539        H  0.03291746  0.84363755  0.18112828     0.13700
H540        H  0.43129524  0.82473307  0.12281090    -0.00600
H541        H  0.02366484  0.75715228  0.08776087     0.14000
H542        H  0.02016569  0.87722965  0.05525155     0.13800
In543      In  0.44129329  0.68859561  0.03329752     1.36900
C544        C  0.39782075  0.63500025  0.06279312     0.76600
O545        O  0.46328528  0.71087241  0.09750973    -0.61800
O546        O  0.42882307  0.75059382  0.06424779    -0.52700
C547        C  0.49278127  0.72562066  0.01772584     0.69300
O548        O  0.49360422  0.69189522  0.03938704    -0.47600
C549        C  0.46182418  0.67335783  0.45158327     0.74000
O550        O  0.42964387  0.63109186  0.06720793    -0.59400
O551        O  0.43552298  0.69463964  0.46055684    -0.49500
O552        O  0.38804763  0.66630203  0.04147871    -0.55900
C553        C  0.45264260  0.74736753  0.09232474     0.84200
O554        O  0.46545097  0.73930998  0.50638803    -0.57800
O555        O  0.47292422  0.65251990  0.48355805    -0.61000
C556        C  0.07067229  0.68739861  0.34677614     0.85500
C557        C  0.08996665  0.65579650  0.37481948    -0.54700
C558        C  0.12452716  0.65612549  0.36987203     0.08500
C559        C  0.13784348  0.68772301  0.33690252     0.19400
C560        C  0.08906471  0.72887903  0.35588141    -0.55400
C561        C  0.12385405  0.72943311  0.35101113     0.08600
C562        C  0.08394371  0.67691559  0.29955014    -0.54900
C563        C  0.11919005  0.67656259  0.29481269     0.09100
H564        H  0.07733711  0.63384386  0.39584006     0.13700
H565        H  0.16585361  0.68785847  0.33321957    -0.00600
H566        H  0.07562924  0.75595507  0.36565024     0.14000
H567        H  0.06716955  0.67154173  0.27218353     0.13800
In568      In  0.15561901  0.82909027  0.42003057     1.36900
C569        C  0.19965323  0.88209301  0.39073208     0.76600
O570        O  0.12655664  0.86633718  0.47183567    -0.61800
O571        O  0.16237286  0.82103560  0.99193508    -0.52700
C572        C  0.10046356  0.79913589  0.43240548     0.69300
O573        O  0.10234113  0.83218161  0.40967214    -0.47600
C574        C  0.14509641  0.76604457  0.36468132     0.74000
O575        O  0.16791968  0.88607326  0.38562247    -0.59400
O576        O  0.16732521  0.76407404  0.39492460    -0.49500
O577        O  0.20909117  0.85070438  0.41209639    -0.55900
C578        C  0.13788140  0.84433629  0.00322088     0.84200
O579        O  0.12777807  0.78399025  0.44742900    -0.57800
O580        O  0.13592580  0.80247398  0.35598939    -0.61000
C581        C  0.31937672  0.94093024  0.35715310     0.85500
C582        C  0.33247207  0.92865678  0.40396761    -0.54700
C583        C  0.36766325  0.92815279  0.40878051     0.08500
C584        C  0.38643295  0.94118469  0.36764068     0.19400
C585        C  0.33765608  0.98279065  0.34987627    -0.55400
C586        C  0.37236782  0.98320937  0.35537536     0.08600
C587        C  0.33903100  0.91055631  0.32783676    -0.54900
C588        C  0.37355716  0.91084439  0.33336611     0.09100
H589        H  0.31568891  0.92222396  0.43105489     0.13700
H590        H  0.41441962  0.94141228  0.37164191    -0.00600
H591        H  0.32434048  0.01007943  0.34004059     0.14000
H592        H  0.32669466  0.88893923  0.30618127     0.13800
In593      In  0.40519738  0.57795211  0.28412159     1.36900
C594        C  0.44990330  0.63038760  0.31385030     0.76600
O595        O  0.38454582  0.55285482  0.34796010    -0.61800
O596        O  0.41730482  0.01609364  0.31339722    -0.52700
C597        C  0.35029093  0.54664256  0.27034570     0.69300
O598        O  0.35153322  0.58007250  0.29251748    -0.47600
C599        C  0.38739406  0.59264701  0.20084312     0.74000
O600        O  0.41816277  0.63497334  0.31853304    -0.59400
O601        O  0.41288086  0.57047256  0.21107507    -0.49500
O602        O  0.45899298  0.59883919  0.29250461    -0.55900
C603        C  0.39389285  0.01937798  0.34201777     0.84200
O604        O  0.37807714  0.53140161  0.25680910    -0.57800
O605        O  0.37659631  0.61481821  0.23194158    -0.61000
C606        C  0.27862783  0.57449132  0.09646366     0.85500
C607        C  0.25838479  0.60472698  0.12527708    -0.54700
C608        C  0.22393036  0.60402414  0.11897164     0.08500
C609        C  0.21176867  0.57336240  0.08452100     0.19400
C610        C  0.26054426  0.53245908  0.10394399    -0.55400
C611        C  0.22592608  0.53156981  0.09752130     0.08600
C612        C  0.26601360  0.58606094  0.04911363    -0.54900
C613        C  0.23090345  0.58605648  0.04342725     0.09100
H614        H  0.27030235  0.62616955  0.14753683     0.13700
H615        H  0.18382730  0.57278168  0.08009548    -0.00600
H616        H  0.27372774  0.50559306  0.11513586     0.14000
H617        H  0.28314742  0.59210116  0.02224744     0.13800
In618      In  0.19033331  0.94026071  0.17155485     1.36900
C619        C  0.14744302  0.88633863  0.14166452     0.76600
O620        O  0.22260242  0.90406315  0.22033932    -0.61800
O621        O  0.18368480  0.94348709  0.24479927    -0.52700
C622        C  0.23961018  0.98064129  0.18930989     0.69300
O623        O  0.24219549  0.94639583  0.16881243    -0.47600
C624        C  0.20436143  0.49543182  0.11101640     0.74000
O625        O  0.17931281  0.88267123  0.13751848    -0.59400
O626        O  0.17908379  0.49940798  0.13681303    -0.49500
O627        O  0.13735199  0.91751155  0.16297677    -0.55900
C628        C  0.21082463  0.92348041  0.25294738     0.84200
O629        O  0.20786271  0.49228965  0.20169902    -0.57800
O630        O  0.21559173  0.45891065  0.10841444    -0.61000
C631        C  0.32008989  0.57484562  0.10638675     0.85500
C632        C  0.33974947  0.60594759  0.07793206    -0.54700
C633        C  0.37428494  0.60555696  0.08329350     0.08500
C634        C  0.38714725  0.57461012  0.11701649     0.19400
C635        C  0.33839844  0.53323616  0.09800459    -0.55400
C636        C  0.37311296  0.53279166  0.10354937     0.08600
C637        C  0.33311926  0.58611475  0.15358650    -0.54900
C638        C  0.36833990  0.58656426  0.15861861     0.09100
H639        H  0.32740780  0.62764222  0.05640614     0.13700
H640        H  0.41513454  0.57442931  0.12098757    -0.00600
H641        H  0.32503295  0.50614955  0.08744493     0.14000
H642        H  0.31620140  0.59203948  0.18067911     0.13800
In643      In  0.40320467  0.93702890  0.03371544     1.36900
C644        C  0.44740768  0.88476690  0.06367742     0.76600
O645        O  0.37586983  0.89800863  0.48088263    -0.61800
O646        O  0.41142762  0.94417128  0.46190079    -0.52700
C647        C  0.34864161  0.96803973  0.01945164     0.69300
O648        O  0.34987196  0.93510294  0.04238617    -0.47600
C649        C  0.39460895  0.49669296  0.08988107     0.74000
O650        O  0.41565019  0.87998949  0.06811196    -0.59400
O651        O  0.41754082  0.49966523  0.06059712    -0.49500
O652        O  0.45667771  0.91634413  0.04244685    -0.55900
C653        C  0.38663439  0.92122970  0.45064362     0.84200
O654        O  0.38007778  0.48318894  0.50618539    -0.57800
O655        O  0.38525101  0.46003809  0.09730424    -0.61000
C656        C  0.27789159  0.94123064  0.34762680     0.85500
C657        C  0.26502155  0.92928081  0.30048048    -0.54700
C658        C  0.22988940  0.92901374  0.29516675     0.08500
C659        C  0.21099419  0.94182643  0.33625693     0.19400
C660        C  0.25974534  0.98319472  0.35504368    -0.55400
C661        C  0.22511524  0.98380671  0.34862385     0.08600
C662        C  0.25787290  0.91111682  0.37688035    -0.54900
C663        C  0.22343722  0.91156085  0.37089237     0.09100
H664        H  0.28196361  0.92328845  0.27344045     0.13700
H665        H  0.18302735  0.94213823  0.33205578    -0.00600
H666        H  0.27280306  0.01013526  0.36638411     0.14000
H667        H  0.26988866  0.88965787  0.39895565     0.13800
In668      In  0.19016074  0.57243344  0.42124707     1.36900
C669        C  0.14756781  0.62622524  0.39046334     0.76600
O670        O  0.21524839  0.55261816  0.35847436    -0.61800
O671        O  0.17720846  0.01543981  0.38591225    -0.52700
C672        C  0.23797140  0.53059932  0.44164321     0.69300
O673        O  0.24129758  0.56427655  0.42041200    -0.47600
C674        C  0.21207049  0.59126404  0.00091950     0.74000
O675        O  0.17947031  0.62974861  0.38650905    -0.59400
O676        O  0.18446779  0.57194259  0.99316217    -0.49500
O677        O  0.13723743  0.59503354  0.41168786    -0.55900
C678        C  0.20331085  0.01977181  0.36156192     0.84200
O679        O  0.20790653  0.51873011  0.45193761    -0.57800
O680        O  0.22341509  0.60962289  0.46820126    -0.61000
C681        C  0.28472945  0.96046236  0.50936968    -0.02800
C682        C  0.31543441  0.98239992  0.50815377     0.06900
C683        C  0.32384104  0.52120440  0.48097241    -0.02900
C684        C  0.29865102  0.53007054  0.45202456    -0.02900
C685        C  0.26742044  0.50934766  0.45619794     0.07000
C686        C  0.25776794  0.97467185  0.48472237    -0.03100
Br687      Br  0.21588752  0.94325101  0.48511824    -0.01600
Br688      Br  0.27825273  0.91206379  0.54497225    -0.01700
Br689      Br  0.30927032  0.57053953  0.40710847    -0.01700
Br690      Br  0.36068533  0.55911315  0.98668814    -0.01700
C691        C  0.32522040  0.98960548  0.22827968    -0.02800
C692        C  0.31942441  0.52752531  0.25711945     0.06900
C693        C  0.28895607  0.54987396  0.25822134    -0.02900
C694        C  0.26283641  0.53801710  0.23097696    -0.02900
C695        C  0.26917599  0.00227745  0.20270934     0.07000
C696        C  0.30032503  0.98178850  0.19837984    -0.03100
Br697      Br  0.31078565  0.94368075  0.15151607    -0.01600
Br698      Br  0.36281137  0.95107587  0.23136717    -0.01700
Br699      Br  0.22277739  0.57238987  0.22759293    -0.01700
Br700      Br  0.28128810  0.59540189  0.29742318    -0.01700
C701        C  0.04387079  0.74088242  0.99421038    -0.02800
C702        C  0.01664816  0.75628078  0.49637822     0.06900
C703        C  0.01254762  0.79092678  0.46932473    -0.02900
C704        C  0.03905177  0.80251249  0.44246673    -0.02900
C705        C  0.06938330  0.78014164  0.44453958     0.07000
C706        C  0.07228389  0.74393867  0.46931360    -0.03100
Br707      Br  0.10592689  0.71119612  0.95952545    -0.01600
Br708      Br  0.05673549  0.70069310  0.03870754    -0.01700
Br709      Br  0.03248810  0.84781943  0.40249864    -0.01700
Br710      Br  0.48299265  0.81699408  0.47985671    -0.01700
C711        C  0.07081894  0.76869376  0.21838073    -0.02800
C712        C  0.06783032  0.73249703  0.19343435     0.06900
C713        C  0.03726631  0.71041248  0.19096181    -0.02900
C714        C  0.01056260  0.72227353  0.21741751    -0.02900
C715        C  0.01484944  0.75666750  0.24480643     0.07000
C716        C  0.04620572  0.77738390  0.24812552    -0.03100
Br717      Br  0.05800480  0.81767211  0.29291245    -0.01600
Br718      Br  0.10863612  0.80745199  0.21438806    -0.01700
Br719      Br  0.47864898  0.69970954  0.23065206    -0.01700
Br720      Br  0.03066291  0.66522738  0.15088543    -0.01700
In721      In  0.43875901  0.82520308  0.78232560     1.36900
C722        C  0.39567663  0.87844472  0.81262677     0.76600
O723        O  0.47140413  0.86273372  0.73484170    -0.61800
O724        O  0.43204262  0.82453745  0.70906796    -0.52700
C725        C  0.48617622  0.78375830  0.76100252     0.69300
O726        O  0.48971203  0.81748452  0.78209142    -0.47600
C727        C  0.45410284  0.76846809  0.84201572     0.74000
O728        O  0.42754667  0.88241669  0.81661216    -0.59400
O729        O  0.42827622  0.76440768  0.81715831    -0.49500
O730        O  0.38560018  0.84696467  0.79173337    -0.55900
C731        C  0.45945470  0.84437571  0.70159104     0.84200
O732        O  0.45603639  0.77189126  0.75096130    -0.57800
O733        O  0.46522209  0.80511805  0.84443302    -0.61000
C734        C  0.02961385  0.68724220  0.85668810     0.85500
C735        C  0.50903039  0.65953414  0.82728048    -0.54700
C736        C  0.47454309  0.65970188  0.83320155     0.08500
C737        C  0.46193436  0.69030791  0.86753286     0.19400
C738        C  0.51058486  0.73186819  0.84846510    -0.55400
C739        C  0.47593174  0.73235235  0.85479659     0.08600
C740        C  0.51600575  0.67835268  0.90351182    -0.54900
C741        C  0.48082010  0.67797594  0.90885771     0.09100
H742        H  0.02165253  0.63604539  0.80504300     0.13700
H743        H  0.43396151  0.69047354  0.87167779    -0.00600
H744        H  0.02445338  0.75624726  0.83838059     0.14000
H745        H  0.03387154  0.66960337  0.93101533     0.13800
C746        C  0.06964517  0.82641116  0.59743707     0.85500
C747        C  0.08277101  0.83797069  0.55028820    -0.54700
C748        C  0.11802434  0.83870961  0.54542193     0.08500
C749        C  0.13671779  0.82680383  0.58708696     0.19400
C750        C  0.08816645  0.78490887  0.60561370    -0.55400
C751        C  0.12290038  0.78479489  0.60018710     0.08600
C752        C  0.08896998  0.85749178  0.62612061    -0.54900
C753        C  0.12347331  0.85747963  0.62085237     0.09100
H754        H  0.06592789  0.84362039  0.52307312     0.13700
H755        H  0.16472293  0.82691174  0.58330092    -0.00600
H756        H  0.07496469  0.75766688  0.61567348     0.14000
H757        H  0.07642164  0.87903822  0.64761827     0.13800
In758      In  0.15636498  0.68686434  0.66891873     1.36500
C759        C  0.20082150  0.63449203  0.63918190     0.76600
O760        O  0.13529257  0.71203694  0.60526775    -0.61800
O761        O  0.16749636  0.75129631  0.64251281    -0.52700
C762        C  0.10108073  0.71637940  0.68278934     0.69300
O763        O  0.10285984  0.68336766  0.66002317    -0.47600
C764        C  0.13883136  0.67151636  0.75241946     0.74000
O765        O  0.16906161  0.62970596  0.63499944    -0.59400
O766        O  0.16388479  0.69451691  0.74215870    -0.49500
O767        O  0.21011694  0.66643716  0.65979368    -0.55900
C768        C  0.14454805  0.74862626  0.61323265     0.84200
O769        O  0.12859372  0.73213746  0.69657186    -0.57800
O770        O  0.12837908  0.64919990  0.72122858    -0.61000
C771        C  0.02820655  0.82579017  0.60735961     0.85500
C772        C  0.51395347  0.83933287  0.65417615    -0.54700
C773        C  0.47877162  0.83899884  0.65949941     0.08500
C774        C  0.46001152  0.82535766  0.61853663     0.19400
C775        C  0.50919029  0.78470284  0.60045391    -0.55400
C776        C  0.47454950  0.78364211  0.60638289     0.08600
C777        C  0.50656526  0.85668549  0.57773211    -0.54900
C778        C  0.47208688  0.85553685  0.58373006     0.09100
H779        H  0.03224739  0.84337996  0.68169327     0.13700
H780        H  0.43205213  0.82443486  0.62273468    -0.00600
H781        H  0.02359268  0.75697342  0.58868233     0.14000
H782        H  0.01986910  0.87707006  0.55589285     0.13800
In783      In  0.44204712  0.68901310  0.53376271     1.36900
C784        C  0.39834641  0.63581975  0.56261658     0.76600
O785        O  0.46379231  0.71087876  0.59811284    -0.61800
O786        O  0.42958863  0.75083320  0.56461304    -0.52700
C787        C  0.49415059  0.72511496  0.51860535     0.69300
O788        O  0.49468664  0.69115789  0.53988639    -0.47600
C789        C  0.46166564  0.67254790  0.95119868     0.74000
O790        O  0.43013385  0.63162855  0.56709275    -0.59400
O791        O  0.43503210  0.69335210  0.95985280    -0.49500
O792        O  0.38868321  0.66729788  0.54153230    -0.55900
C793        C  0.45330920  0.74740618  0.59278034     0.84200
O794        O  0.46395563  0.73928954  0.00516387    -0.57800
O795        O  0.47288520  0.65220086  0.98347510    -0.61000
C796        C  0.07108078  0.68724968  0.84669652     0.85500
C797        C  0.09062449  0.65583826  0.87469967    -0.54700
C798        C  0.12518472  0.65657877  0.86970472     0.08500
C799        C  0.13824079  0.68825729  0.83674718     0.19400
C800        C  0.08920892  0.72891802  0.85553694    -0.55400
C801        C  0.12396661  0.72977286  0.85086730     0.08600
C802        C  0.08438508  0.67675169  0.79945860    -0.54900
C803        C  0.11966376  0.67680340  0.79469762     0.09100
H804        H  0.07815767  0.63374849  0.89572740     0.13700
H805        H  0.16625067  0.68872382  0.83306710    -0.00600
H806        H  0.07564921  0.75588914  0.86538932     0.14000
H807        H  0.06762164  0.67100365  0.77218408     0.13800
In808      In  0.15441864  0.83086396  0.91892493     1.36900
C809        C  0.19863186  0.88349030  0.88977477     0.76600
O810        O  0.12766078  0.86762883  0.97284225    -0.61800
O811        O  0.16281394  0.82235301  0.49335615    -0.52700
C812        C  0.09676643  0.80558503  0.92873238     0.69300
O813        O  0.10033752  0.83834098  0.90596285    -0.47600
C814        C  0.14482923  0.76648281  0.86498528     0.74000
O815        O  0.16693362  0.88794157  0.88498977    -0.59400
O816        O  0.16619144  0.76501840  0.89622008    -0.49500
O817        O  0.20793565  0.85190785  0.91084928    -0.55900
C818        C  0.13726166  0.84455197  0.50325885     0.84200
O819        O  0.12315298  0.78952798  0.94448948    -0.57800
O820        O  0.13613897  0.80272166  0.85501016    -0.61000
C821        C  0.31868446  0.93970137  0.85600104     0.85500
C822        C  0.33154674  0.92833392  0.90322633    -0.54700
C823        C  0.36673915  0.92739454  0.90825616     0.08500
C824        C  0.38571685  0.93898622  0.86666785     0.19400
C825        C  0.33748101  0.98097184  0.84772945    -0.55400
C826        C  0.37216505  0.98092730  0.85317763     0.08600
C827        C  0.33794221  0.90824650  0.82762909    -0.54900
C828        C  0.37246666  0.90815084  0.83304893     0.09100
H829        H  0.31461836  0.92288828  0.93039019     0.13700
H830        H  0.41370206  0.93883292  0.87066390    -0.00600
H831        H  0.32446751  0.00828850  0.83770926     0.14000
H832        H  0.32536500  0.88665284  0.80617554     0.13800
In833      In  0.40686094  0.57662982  0.78319329     1.36900
C834        C  0.45085132  0.62995759  0.81319464     0.76600
O835        O  0.38591525  0.55164630  0.84682645    -0.61800
O836        O  0.41639734  0.01378428  0.80977718    -0.52700
C837        C  0.35253306  0.54436491  0.76850228     0.69300
O838        O  0.35346793  0.57746380  0.79123544    -0.47600
C839        C  0.38823585  0.59288810  0.70054173     0.74000
O840        O  0.41905760  0.63373614  0.81798135    -0.59400
O841        O  0.41399828  0.57080552  0.70990495    -0.49500
O842        O  0.46041397  0.59861173  0.79180065    -0.55900
C843        C  0.39387457  0.01683540  0.83956006     0.84200
O844        O  0.38050266  0.52955209  0.75481170    -0.57800
O845        O  0.37746060  0.61420142  0.73232022    -0.61000
C846        C  0.27918374  0.57534656  0.59628342     0.85500
C847        C  0.25920044  0.60570543  0.62521489    -0.54700
C848        C  0.22472224  0.60510724  0.61933653     0.08500
C849        C  0.21222371  0.57430476  0.58521416     0.19400
C850        C  0.26112102  0.53331732  0.60391025    -0.55400
C851        C  0.22645315  0.53247273  0.59788285     0.08600
C852        C  0.26618256  0.58686469  0.54902893    -0.54900
C853        C  0.23097301  0.58682779  0.54384755     0.09100
H854        H  0.27132504  0.62729950  0.64712034     0.13700
H855        H  0.18424296  0.57374939  0.58121221    -0.00600
H856        H  0.27441617  0.50629753  0.61440266     0.14000
H857        H  0.28310693  0.59282291  0.52192815     0.13800
In858      In  0.18905695  0.94146191  0.67087819     1.36900
C859        C  0.14653411  0.88735231  0.64125175     0.76600
O860        O  0.22205139  0.90483177  0.71839533    -0.61800
O861        O  0.18261024  0.94284338  0.74406493    -0.52700
C862        C  0.23701971  0.98341678  0.69020696     0.69300
O863        O  0.24039047  0.94943852  0.66947803    -0.47600
C864        C  0.20491931  0.49599181  0.61051539     0.74000
O865        O  0.17840001  0.88404246  0.63676402    -0.59400
O866        O  0.17976874  0.49937611  0.63660893    -0.49500
O867        O  0.13624261  0.91846572  0.66250968    -0.55900
C868        C  0.21006501  0.92323740  0.75154506     0.84200
O869        O  0.20995337  0.49097123  0.70004681    -0.57800
O870        O  0.21606413  0.45951090  0.60680804    -0.61000
C871        C  0.32069755  0.57571566  0.60608718     0.85500
C872        C  0.34027048  0.60676890  0.57752043    -0.54700
C873        C  0.37478689  0.60647396  0.58296149     0.08500
C874        C  0.38774608  0.57571376  0.61674494     0.19400
C875        C  0.33913031  0.53414630  0.59779958    -0.55400
C876        C  0.37386778  0.53390520  0.60342598     0.08600
C877        C  0.33376712  0.58706082  0.65331984    -0.54900
C878        C  0.36899972  0.58754678  0.65833434     0.09100
H879        H  0.32789332  0.62832824  0.55587592     0.13700
H880        H  0.41573574  0.57560325  0.62069640    -0.00600
H881        H  0.32585055  0.50701066  0.58735442     0.14000
H882        H  0.31686824  0.59277977  0.68047740     0.13800
In883      In  0.40253020  0.93517668  0.53428914     1.36900
C884        C  0.44768915  0.88386674  0.56350262     0.76600
O885        O  0.37455530  0.89970747  0.98179467    -0.61800
O886        O  0.41111973  0.94381928  0.96070625    -0.52700
C887        C  0.34645974  0.96346521  0.52085274     0.69300
O888        O  0.34850581  0.93022820  0.54319514    -0.47600
C889        C  0.39567266  0.49802129  0.59015903     0.74000
O890        O  0.41601478  0.87823480  0.56781014    -0.59400
O891        O  0.41870252  0.50115713  0.56100291    -0.49500
O892        O  0.45645391  0.91593527  0.54281727    -0.55900
C893        C  0.38560333  0.92156368  0.95055538     0.84200
O894        O  0.37887359  0.48118297  0.00624823    -0.57800
O895        O  0.38647452  0.46133908  0.59769534    -0.61000
C896        C  0.27728554  0.94076503  0.84604314     0.85500
C897        C  0.26434977  0.92817392  0.79909658    -0.54700
C898        C  0.22921507  0.92848862  0.79371236     0.08500
C899        C  0.21043683  0.94231435  0.83453658     0.19400
C900        C  0.25961739  0.98322979  0.85238479    -0.55400
C901        C  0.22497858  0.98427179  0.84606796     0.08600
C902        C  0.25692822  0.91160010  0.87582500    -0.54900
C903        C  0.22255533  0.91250861  0.86974545     0.09100
H904        H  0.28125921  0.92150006  0.77220223     0.13700
H905        H  0.18247298  0.94297800  0.83036870    -0.00600
H906        H  0.27290570  0.01014249  0.86297100     0.14000
H907        H  0.26868533  0.89027664  0.89827895     0.13800
In908      In  0.19130934  0.57309514  0.91986726     1.36900
C909        C  0.14847964  0.62684002  0.88992374     0.76600
O910        O  0.21646040  0.55308445  0.85703960    -0.61800
O911        O  0.17781989  0.01638454  0.88425449    -0.52700
C912        C  0.23851706  0.53046124  0.94023091     0.69300
O913        O  0.24242834  0.56435186  0.91948166    -0.47600
C914        C  0.21158114  0.59156900  0.50170338     0.74000
O915        O  0.18035397  0.63056807  0.88560250    -0.59400
O916        O  0.18400916  0.57190205  0.49465445    -0.49500
O917        O  0.13837491  0.59549964  0.91103440    -0.55900
C918        C  0.20352000  0.02050005  0.85917570     0.84200
O919        O  0.20826379  0.51901642  0.95014782    -0.57800
O920        O  0.22442162  0.60945926  0.96779265    -0.61000
C921        C  0.28735273  0.96379201  0.00680310    -0.02800
C922        C  0.31777259  0.98643581  0.00564910     0.06900
C923        C  0.32337883  0.51995428  0.98137368    -0.02900
C924        C  0.29894967  0.52874383  0.95141130    -0.02900
C925        C  0.26753756  0.50840363  0.95476017     0.07000
C926        C  0.26060978  0.97660130  0.98109603    -0.03100
Br927      Br  0.21896009  0.94460917  0.98246663    -0.01600
Br928      Br  0.28084009  0.91585924  0.04325195    -0.01700
Br929      Br  0.31076824  0.56862924  0.90644132    -0.01700
Br930      Br  0.36123755  0.56049270  0.48489778    -0.01700
C931        C  0.32196481  0.99239607  0.73059147    -0.02800
C932        C  0.32168789  0.52542355  0.75493947     0.06900
C933        C  0.29125350  0.54787120  0.75626498    -0.02900
C934        C  0.26506212  0.53621025  0.72905129    -0.02900
C935        C  0.26630678  0.00527585  0.70419656     0.07000
C936        C  0.29750340  0.98473346  0.70025680    -0.03100
Br937      Br  0.30879797  0.94622966  0.65388606    -0.01600
Br938      Br  0.35878891  0.95281527  0.73523044    -0.01700
Br939      Br  0.22516373  0.57089010  0.72588015    -0.01700
Br940      Br  0.28369689  0.59333880  0.79568724    -0.01700
C941        C  0.04785745  0.73544089  0.49942830    -0.02800
C942        C  0.01233795  0.76115915  0.99139697     0.06900
C943        C  0.00787588  0.79594881  0.96457260    -0.02900
C944        C  0.03485939  0.80923369  0.93902348    -0.02900
C945        C  0.06525742  0.78693143  0.94038739     0.07000
C946        C  0.06805450  0.74989095  0.96408300    -0.03100
Br947      Br  0.10972840  0.70511117  0.46419769    -0.01600
Br948      Br  0.05961643  0.69559620  0.54444100    -0.01700
Br949      Br  0.02926356  0.85691084  0.90221826    -0.01700
Br950      Br  0.48121673  0.81824204  0.98194134    -0.01700
C951        C  0.07272525  0.77080718  0.72118892    -0.02800
C952        C  0.06998286  0.73450319  0.69632722     0.06900
C953        C  0.03973773  0.71155957  0.69457507    -0.02900
C954        C  0.01296179  0.72328193  0.72083290    -0.02900
C955        C  0.01664958  0.75845711  0.74712431     0.07000
C956        C  0.04771876  0.77972012  0.75040173    -0.03100
Br957      Br  0.05846320  0.82080678  0.79473036    -0.01600
Br958      Br  0.11042117  0.80973361  0.71735659    -0.01700
Br959      Br  0.47071365  0.69285300  0.72290991    -0.01700
Br960      Br  0.03353892  0.66466061  0.65652258    -0.01700
In961      In  0.94318440  0.33006548  0.28417797     1.36900
C962        C  0.89900147  0.38313222  0.31300201     0.76600
O963        O  0.97315889  0.36700836  0.23305492    -0.61800
O964        O  0.93594062  0.32431590  0.21074282    -0.52700
C965        C  0.99596728  0.29565535  0.26853211     0.69300
O966        O  0.99633822  0.32889450  0.29110623    -0.47600
C967        C  0.95374243  0.26912945  0.34095486     0.74000
O968        O  0.93073046  0.38725009  0.31856533    -0.59400
O969        O  0.93027348  0.26690090  0.31231921    -0.49500
O970        O  0.88978941  0.35163714  0.29158336    -0.55900
C971        C  0.96184860  0.34615679  0.20116037     0.84200
O972        O  0.96738748  0.28164569  0.25579466    -0.57800
O973        O  0.96428328  0.30543243  0.34791356    -0.61000
C974        C  0.52845995  0.18854596  0.35754747     0.85500
C975        C  0.00711916  0.15910717  0.32651669    -0.54700
C976        C  0.97266175  0.15977631  0.33228889     0.08500
C977        C  0.96014438  0.19053893  0.36642147     0.19400
C978        C  0.00934367  0.23138424  0.34786884    -0.55400
C979        C  0.97468931  0.23233681  0.35369785     0.08600
C980        C  0.01401353  0.17762506  0.40256723    -0.54900
C981        C  0.97881570  0.17766256  0.40772903     0.09100
H982        H  0.52016945  0.13744410  0.30584975     0.13700
H983        H  0.93216614  0.19113116  0.37045497    -0.00600
H984        H  0.52415116  0.25770797  0.33968806     0.14000
H985        H  0.53223611  0.16989218  0.43158705     0.13800
C986        C  0.57041538  0.32465057  0.09594020     0.85500
C987        C  0.58345767  0.33529364  0.04849840    -0.54700
C988        C  0.61868750  0.33528050  0.04335567     0.08500
C989        C  0.63741202  0.32365944  0.08503971     0.19400
C990        C  0.58843456  0.28293102  0.10468189    -0.55400
C991        C  0.62313829  0.28216667  0.09893539     0.08600
C992        C  0.59028627  0.35580576  0.12394338    -0.54900
C993        C  0.62476449  0.35501542  0.11842029     0.09100
H994        H  0.56656676  0.34105579  0.02137284     0.13700
H995        H  0.66539638  0.32315524  0.08105123    -0.00600
H996        H  0.57498275  0.25616861  0.11544158     0.14000
H997        H  0.57814697  0.37776403  0.14535388     0.13800
In998      In  0.65567751  0.18553320  0.16964985     1.36500
C999        C  0.70008069  0.13330723  0.13996615     0.76600
O1000       O  0.63477252  0.20944314  0.10556794    -0.61800
O1001       O  0.66750882  0.24907270  0.14174963    -0.52700
C1002       C  0.60148519  0.21746800  0.18385570     0.69300
O1003       O  0.60232506  0.18431283  0.16121223    -0.47600
C1004       C  0.63728000  0.17047814  0.25290791     0.74000
O1005       O  0.66832500  0.12832394  0.13588442    -0.59400
O1006       O  0.66282101  0.19281048  0.24293653    -0.49500
O1007       O  0.70934206  0.16504092  0.16097129    -0.55900
C1008       C  0.64446975  0.24603717  0.11261667     0.84200
O1009       O  0.62948885  0.23260008  0.19707810    -0.57800
O1010       O  0.62657752  0.14852389  0.22154098    -0.61000
C1011       C  0.52903170  0.32492487  0.10620752     0.85500
C1012       C  0.01566439  0.33992623  0.15312913    -0.54700
C1013       C  0.98049618  0.34141233  0.15834584     0.08500
C1014       C  0.96138504  0.33153361  0.11622527     0.19400
C1015       C  0.00908781  0.28901027  0.09601502    -0.55400
C1016       C  0.97438639  0.28961390  0.10144756     0.08600
C1017       C  0.00972194  0.36216673  0.07805754    -0.54900
C1018       C  0.97524669  0.36294960  0.08339590     0.09100
H1019       H  0.53364921  0.34320557  0.18030752     0.13700
H1020       H  0.93340205  0.33223235  0.12014992    -0.00600
H1021       H  0.52344818  0.25568599  0.08890647     0.14000
H1022       H  0.52132690  0.37603860  0.05435940     0.13800
In1023     In  0.94167895  0.19042522  0.03440311     1.36900
C1024       C  0.89779779  0.13760156  0.06422879     0.76600
O1025       O  0.96113489  0.21721584  0.09783875    -0.61800
O1026       O  0.93030696  0.25580009  0.05815077    -0.52700
C1027       C  0.99714712  0.21919975  0.02033601     0.69300
O1028       O  0.99515701  0.18745246  0.04500680    -0.47600
C1029       C  0.95970940  0.17168099  0.44993242     0.74000
O1030       O  0.92953952  0.13388449  0.06943134    -0.59400
O1031       O  0.93440706  0.19416734  0.46013543    -0.49500
O1032       O  0.88820869  0.16893723  0.04286620    -0.55900
C1033       C  0.95246746  0.25363619  0.08845291     0.84200
O1034       O  0.96961377  0.23248699  0.50511065    -0.57800
O1035       O  0.97045534  0.14967521  0.48117901    -0.61000
C1036       C  0.56997529  0.18791191  0.34766810     0.85500
C1037       C  0.58915894  0.15648209  0.37599883    -0.54700
C1038       C  0.62365054  0.15619391  0.37052322     0.08500
C1039       C  0.63706797  0.18722883  0.33706496     0.19400
C1040       C  0.58879994  0.22924027  0.35618861    -0.55400
C1041       C  0.62354930  0.22923768  0.35060090     0.08600
C1042       C  0.58298293  0.17673772  0.30036200    -0.54900
C1043       C  0.61821679  0.17595287  0.29529517     0.09100
H1044       H  0.57648815  0.13485062  0.39735106     0.13700
H1045       H  0.66506476  0.18697046  0.33319336    -0.00600
H1046       H  0.57574780  0.25651231  0.36644969     0.14000
H1047       H  0.56606138  0.17126326  0.27321107     0.13800
In1048     In  0.65776686  0.32575672  0.42052824     1.36900
C1049       C  0.70114762  0.37930770  0.39031140     0.76600
O1050       O  0.62773438  0.36318415  0.47078720    -0.61800
O1051       O  0.66377030  0.31823242  0.99198449    -0.52700
C1052       C  0.60490836  0.29134578  0.43655325     0.69300
O1053       O  0.60485918  0.32468289  0.41417422    -0.47600
C1054       C  0.64547168  0.26538363  0.36346224     0.74000
O1055       O  0.66928985  0.38326398  0.38653362    -0.59400
O1056       O  0.66916815  0.26235515  0.39173201    -0.49500
O1057       O  0.71110659  0.34774315  0.41104953    -0.55900
C1058       C  0.63792943  0.34028483  0.00109893     0.84200
O1059       O  0.63337123  0.27717780  0.44955459    -0.57800
O1060       O  0.63570532  0.30202922  0.35693835    -0.61000
C1061       C  0.81986523  0.44105127  0.35519616     0.85500
C1062       C  0.83297136  0.42992537  0.40248452    -0.54700
C1063       C  0.86812931  0.43072315  0.40784070     0.08500
C1064       C  0.88680835  0.44359267  0.36652531     0.19400
C1065       C  0.83734571  0.48331700  0.34725394    -0.55400
C1066       C  0.87191381  0.48501470  0.35356554     0.08600
C1067       C  0.84036065  0.41116976  0.32629624    -0.54900
C1068       C  0.87484179  0.41250461  0.33232110     0.09100
H1069       H  0.81610692  0.42357613  0.42954234     0.13700
H1070       H  0.91476477  0.44476489  0.37067608    -0.00600
H1071       H  0.82384860  0.50974182  0.33559254     0.14000
H1072       H  0.82858201  0.38925650  0.30444383     0.13800
In1073     In  0.90549807  0.07656977  0.28365675     1.36900
C1074       C  0.94906996  0.12997358  0.31276740     0.76600
O1075       O  0.88500799  0.05144134  0.34748616    -0.61800
O1076       O  0.91845620  0.51787670  0.31469975    -0.52700
C1077       C  0.85082224  0.04552170  0.26956847     0.69300
O1078       O  0.85204611  0.07867058  0.29217317    -0.47600
C1079       C  0.88747582  0.09195608  0.20053538     0.74000
O1080       O  0.91731538  0.13371250  0.31786288    -0.59400
O1081       O  0.91287457  0.06949059  0.21043972    -0.49500
O1082       O  0.95875572  0.09852392  0.29166916    -0.55900
C1083       C  0.89281708  0.52155050  0.33991089     0.84200
O1084       O  0.87861527  0.03028393  0.25612179    -0.57800
O1085       O  0.87681692  0.11383739  0.23192041    -0.61000
C1086       C  0.77861563  0.07569779  0.09582639     0.85500
C1087       C  0.75850056  0.10537438  0.12528304    -0.54700
C1088       C  0.72405996  0.10457731  0.11936404     0.08500
C1089       C  0.71172622  0.07437609  0.08451158     0.19400
C1090       C  0.76069717  0.03343467  0.10280496    -0.55400
C1091       C  0.72606466  0.03247435  0.09655260     0.08600
C1092       C  0.76565949  0.08778881  0.04867719    -0.54900
C1093       C  0.73046235  0.08750104  0.04329142     0.09100
H1094       H  0.77050173  0.12658164  0.14772462     0.13700
H1095       H  0.68374798  0.07373800  0.08049394    -0.00600
H1096       H  0.77393181  0.00650742  0.11354447     0.14000
H1097       H  0.78265176  0.09408533  0.02172978     0.13800
In1098     In  0.69257903  0.43641685  0.16887058     1.36900
C1099       C  0.64850915  0.38411365  0.13877726     0.76600
O1100       O  0.72119646  0.39901696  0.22067979    -0.61800
O1101       O  0.68512243  0.44334533  0.24206223    -0.52700
C1102       C  0.74791963  0.46624849  0.18116499     0.69300
O1103       O  0.74608079  0.43312587  0.15857877    -0.47600
C1104       C  0.70448962  0.99621033  0.10952542     0.74000
O1105       O  0.68026338  0.37950994  0.13462315    -0.59400
O1106       O  0.67905533  0.00017894  0.13503693    -0.49500
O1107       O  0.63903948  0.41565578  0.15986475    -0.55900
C1108       C  0.71057388  0.42098506  0.25199313     0.84200
O1109       O  0.70796016  0.99305019  0.19970681    -0.57800
O1110       O  0.71567241  0.95965341  0.10685493    -0.61000
C1111       C  0.82007357  0.07621389  0.10575794     0.85500
C1112       C  0.83967657  0.10805987  0.07816061    -0.54700
C1113       C  0.87421957  0.10763248  0.08363576     0.08500
C1114       C  0.88714506  0.07576134  0.11634185     0.19400
C1115       C  0.83837448  0.03490334  0.09642453    -0.55400
C1116       C  0.87305440  0.03432948  0.10173538     0.08600
C1117       C  0.83313376  0.08636715  0.15325008    -0.54900
C1118       C  0.86837303  0.08665993  0.15825722     0.09100
H1119       H  0.82727223  0.13016542  0.05716892     0.13700
H1120       H  0.91512946  0.07541333  0.12029556    -0.00600
H1121       H  0.82495225  0.00796109  0.08583898     0.14000
H1122       H  0.81623723  0.09171563  0.18048640     0.13800
In1123     In  0.91062745  0.44676422  0.03091477     1.36900
C1124       C  0.95269737  0.39311695  0.06253638     0.76600
O1125       O  0.87591891  0.40578402  0.48264170    -0.61800
O1126       O  0.91384681  0.44693253  0.45869382    -0.52700
C1127       C  0.86536635  0.49096396  0.00794577     0.69300
O1128       O  0.86067215  0.45736387  0.02870422    -0.47600
C1129       C  0.89417315  0.99795517  0.08810509     0.74000
O1130       O  0.92076906  0.38984899  0.06611841    -0.59400
O1131       O  0.91605902  0.99992677  0.05747367    -0.49500
O1132       O  0.96342817  0.42412305  0.04128749    -0.55900
C1133       C  0.88725718  0.42585497  0.45019937     0.84200
O1134       O  0.87571812  0.97899956  0.50649373    -0.57800
O1135       O  0.88524248  0.96160629  0.09757626    -0.61000
C1136       C  0.77830982  0.43995774  0.34567595     0.85500
C1137       C  0.76513206  0.42777460  0.29874765    -0.54700
C1138       C  0.72987430  0.42691225  0.29400939     0.08500
C1139       C  0.71120917  0.43928616  0.33547057     0.19400
C1140       C  0.75969511  0.48149638  0.35331869    -0.55400
C1141       C  0.72497576  0.48150546  0.34776358     0.08600
C1142       C  0.75897573  0.40922355  0.37498587    -0.54900
C1143       C  0.72442932  0.40903323  0.36969268     0.09100
H1144       H  0.78195149  0.42197765  0.27151898     0.13700
H1145       H  0.68320425  0.43910418  0.33169297    -0.00600
H1146       H  0.77281070  0.50887426  0.36351148     0.14000
H1147       H  0.77154767  0.38797645  0.39678798     0.13800
In1148     In  0.68883587  0.07158122  0.42067686     1.36900
C1149       C  0.64649859  0.12585904  0.39063674     0.76600
O1150       O  0.71542235  0.05290193  0.35847065    -0.61800
O1151       O  0.67911858  0.51424226  0.38829519    -0.52700
C1152       C  0.73472889  0.02773141  0.44252365     0.69300
O1153       O  0.73902188  0.06101069  0.42101944    -0.47600
C1154       C  0.71110033  0.09177799  0.00093872     0.74000
O1155       O  0.67840060  0.12908557  0.38644779    -0.59400
O1156       O  0.68311843  0.07280550  0.99444605    -0.49500
O1157       O  0.63600017  0.09457705  0.41158480    -0.55900
C1158       C  0.70317117  0.51761181  0.36054302     0.84200
O1159       O  0.70423393  0.01673166  0.45213899    -0.57800
O1160       O  0.72331686  0.10858072  0.46673229    -0.61000
C1161       C  0.79544293  0.47815953  0.50453830    -0.02800
C1162       C  0.82611751  0.50006718  0.50092290     0.06900
C1163       C  0.81985277  0.01825003  0.48467595    -0.02900
C1164       C  0.79508067  0.02760763  0.45537911    -0.02900
C1165       C  0.76383445  0.00654805  0.45826875     0.07000
C1166       C  0.77004082  0.48633421  0.47532286    -0.03100
Br1167     Br  0.73209318  0.44809830  0.47237883    -0.01600
Br1168     Br  0.78613391  0.43810151  0.54996066    -0.01700
Br1169     Br  0.80657582  0.06926101  0.41175657    -0.01700
Br1170     Br  0.85638628  0.05569507  0.98973054    -0.01700
C1171       C  0.83627389  0.47671317  0.21649779    -0.02800
C1172       C  0.81998224  0.02695680  0.25556665     0.06900
C1173       C  0.78954431  0.04937249  0.25737430    -0.02900
C1174       C  0.76307646  0.03761814  0.23063657    -0.02900
C1175       C  0.77890552  0.48576355  0.19279232     0.07000
C1176       C  0.80962294  0.46413836  0.19030040    -0.03100
Br1177     Br  0.81650391  0.41884250  0.15044148    -0.01600
Br1178     Br  0.87716714  0.44381751  0.21732456    -0.01700
Br1179     Br  0.72244347  0.07125374  0.22992500    -0.01700
Br1180     Br  0.78247434  0.09517707  0.29661008    -0.01700
C1181       C  0.55075105  0.22783705  0.00394931    -0.02800
C1182       C  0.52129880  0.24676826  0.50077612     0.06900
C1183       C  0.51744254  0.28198885  0.47451537    -0.02900
C1184       C  0.54368821  0.29337718  0.44749639    -0.02900
C1185       C  0.57441731  0.27167769  0.45007358     0.07000
C1186       C  0.57771615  0.23573496  0.47519530    -0.03100
Br1187     Br  0.61313743  0.19739492  0.97005497    -0.01600
Br1188     Br  0.56073292  0.18757993  0.04903407    -0.01700
Br1189     Br  0.53564069  0.33771513  0.40662355    -0.01700
Br1190     Br  0.98699407  0.31080613  0.48616026    -0.01700
C1191       C  0.57427784  0.27244090  0.22267470    -0.02800
C1192       C  0.57079241  0.23610008  0.19808265     0.06900
C1193       C  0.54044784  0.21323042  0.19793979    -0.02900
C1194       C  0.51427126  0.22570052  0.22471594    -0.02900
C1195       C  0.51867368  0.26127374  0.25015234     0.07000
C1196       C  0.55002426  0.28160743  0.25284209    -0.03100
Br1197     Br  0.56192001  0.32125401  0.29775110    -0.01600
Br1198     Br  0.61172942  0.31118816  0.21675046    -0.01700
Br1199     Br  0.98342080  0.20368140  0.23068954    -0.01700
Br1200     Br  0.53321540  0.16523721  0.16180348    -0.01700
In1201     In  0.94172890  0.32641296  0.78240367     1.36900
C1202       C  0.89814076  0.37912097  0.81304710     0.76600
O1203       O  0.97115502  0.36403469  0.73159431    -0.61800
O1204       O  0.93470051  0.32047926  0.70899104    -0.52700
C1205       C  0.99571958  0.29392622  0.76814121     0.69300
O1206       O  0.99486581  0.32725760  0.79044683    -0.47600
C1207       C  0.95289528  0.26617682  0.83952609     0.74000
O1208       O  0.92994669  0.38326144  0.81735233    -0.59400
O1209       O  0.92986903  0.26293767  0.81038647    -0.49500
O1210       O  0.88841441  0.34789306  0.79150511    -0.55900
C1211       C  0.96037122  0.34286055  0.69969148     0.84200
O1212       O  0.96773566  0.27884295  0.75462286    -0.57800
O1213       O  0.96262064  0.30277856  0.84639638    -0.61000
C1214       C  0.52822044  0.18750795  0.85644206     0.85500
C1215       C  0.00764915  0.15701431  0.82862028    -0.54700
C1216       C  0.97315259  0.15738559  0.83421572     0.08500
C1217       C  0.96027281  0.18875656  0.86742157     0.19400
C1218       C  0.00900014  0.22990277  0.84780497    -0.55400
C1219       C  0.97431640  0.23028755  0.85335499     0.08600
C1220       C  0.01425628  0.17776178  0.90404582    -0.54900
C1221       C  0.97901414  0.17751111  0.90917448     0.09100
H1222       H  0.52004871  0.13552470  0.80573288     0.13700
H1223       H  0.93228559  0.18906357  0.87140451    -0.00600
H1224       H  0.52366890  0.25628707  0.83696966     0.14000
H1225       H  0.53211366  0.17057330  0.93096408     0.13800
C1226       C  0.57041125  0.32532953  0.59645150     0.85500
C1227       C  0.58380816  0.33633778  0.54928886    -0.54700
C1228       C  0.61908307  0.33650776  0.54466429     0.08500
C1229       C  0.63748751  0.32450642  0.58647263     0.19400
C1230       C  0.58838213  0.28357710  0.60502131    -0.55400
C1231       C  0.62309504  0.28286063  0.59983369     0.08600
C1232       C  0.59000953  0.35644372  0.62487612    -0.54900
C1233       C  0.62455691  0.35575642  0.61980541     0.09100
H1234       H  0.56713336  0.34228493  0.52198037     0.13700
H1235       H  0.66549929  0.32401594  0.58283599    -0.00600
H1236       H  0.57489840  0.25664092  0.61510341     0.14000
H1237       H  0.57763467  0.37835753  0.64612223     0.13800
In1238     In  0.65451935  0.18397380  0.66841989     1.36500
C1239       C  0.69954714  0.13239934  0.63912346     0.76600
O1240       O  0.63463000  0.20995043  0.60462791    -0.61800
O1241       O  0.66657610  0.24846681  0.64311004    -0.52700
C1242       C  0.59917387  0.21367189  0.68176836     0.69300
O1243       O  0.60084304  0.18099928  0.65843112    -0.47600
C1244       C  0.63681060  0.16858534  0.75179027     0.74000
O1245       O  0.66786611  0.12721592  0.63434815    -0.59400
O1246       O  0.66197339  0.19139461  0.74152663    -0.49500
O1247       O  0.70839243  0.16413065  0.66037205    -0.55900
C1248       C  0.64411455  0.24632354  0.61319144     0.84200
O1249       O  0.62669053  0.22897826  0.69602280    -0.57800
O1250       O  0.62619251  0.14639285  0.72058581    -0.61000
C1251       C  0.52896703  0.32526853  0.60614964     0.85500
C1252       C  0.01457706  0.33810544  0.65207581    -0.54700
C1253       C  0.97935010  0.33856571  0.65714398     0.08500
C1254       C  0.96050654  0.32794392  0.61514915     0.19400
C1255       C  0.00899567  0.28672499  0.59523158    -0.55400
C1256       C  0.97431048  0.28638066  0.60077350     0.08600
C1257       C  0.00822493  0.35979449  0.57685692    -0.54900
C1258       C  0.97369101  0.35958424  0.58219793     0.09100
H1259       H  0.53276318  0.34319738  0.68043568     0.13700
H1260       H  0.93251425  0.32782081  0.61906540    -0.00600
H1261       H  0.52386234  0.25603251  0.58841580     0.14000
H1262       H  0.52162818  0.37685660  0.55484995     0.13800
In1263     In  0.94222022  0.18740630  0.53321213     1.36900
C1264       C  0.89825877  0.13538314  0.56370123     0.76600
O1265       O  0.96226289  0.21367724  0.59664475    -0.61800
O1266       O  0.93029617  0.25204075  0.55816596    -0.52700
C1267       C  0.99724024  0.21729178  0.51897989     0.69300
O1268       O  0.99579708  0.18475560  0.54254739    -0.47600
C1269       C  0.95979735  0.17300370  0.95151789     0.74000
O1270       O  0.93000935  0.13097193  0.56826259    -0.59400
O1271       O  0.93467469  0.19609120  0.96097873    -0.49500
O1272       O  0.88880086  0.16658718  0.54206847    -0.55900
C1273       C  0.95288315  0.24999637  0.58793168     0.84200
O1274       O  0.96981513  0.23447122  0.00560717    -0.57800
O1275       O  0.97017397  0.15158917  0.98340807    -0.61000
C1276       C  0.56969340  0.18674811  0.84644874     0.85500
C1277       C  0.58898573  0.15573604  0.87521968    -0.54700
C1278       C  0.62348456  0.15543705  0.86966464     0.08500
C1279       C  0.63675214  0.18599458  0.83565993     0.19400
C1280       C  0.58844274  0.22821829  0.85423429    -0.55400
C1281       C  0.62317244  0.22814370  0.84853206     0.08600
C1282       C  0.58261346  0.17493343  0.79928342    -0.54900
C1283       C  0.61783521  0.17410223  0.79416187     0.09100
H1284       H  0.57636308  0.13441395  0.89696972     0.13700
H1285       H  0.66474236  0.18575888  0.83169961    -0.00600
H1286       H  0.57535687  0.25559937  0.86423488     0.14000
H1287       H  0.56564988  0.16925260  0.77221528     0.13800
In1288     In  0.65712079  0.32400212  0.91868272     1.36900
C1289       C  0.70101164  0.37738659  0.88972299     0.76600
O1290       O  0.62721832  0.36146131  0.96916890    -0.61800
O1291       O  0.66479050  0.32065793  0.49382897    -0.52700
C1292       C  0.60384649  0.29028733  0.93423683     0.69300
O1293       O  0.60431089  0.32351249  0.91171585    -0.47600
C1294       C  0.64509320  0.26422416  0.86124338     0.74000
O1295       O  0.66922318  0.38153959  0.88523287    -0.59400
O1296       O  0.66880251  0.26106200  0.88946443    -0.49500
O1297       O  0.71060172  0.34564435  0.91041243    -0.55900
C1298       C  0.63863311  0.34222909  0.50277568     0.84200
O1299       O  0.63211184  0.27543928  0.94708406    -0.57800
O1300       O  0.63526383  0.30086011  0.85482281    -0.61000
C1301       C  0.82028909  0.43838538  0.85660126     0.85500
C1302       C  0.83354440  0.42761064  0.90396974    -0.54700
C1303       C  0.86880702  0.42800563  0.90894929     0.08500
C1304       C  0.88730190  0.43974742  0.86707205     0.19400
C1305       C  0.83822832  0.48035135  0.84817115    -0.55400
C1306       C  0.87291144  0.48136955  0.85387659     0.08600
C1307       C  0.84008405  0.40773869  0.82800634    -0.54900
C1308       C  0.87456010  0.40846106  0.83349912     0.09100
H1309       H  0.81671162  0.42210241  0.93126471     0.13700
H1310       H  0.91531134  0.44039005  0.87070994    -0.00600
H1311       H  0.82481735  0.50724729  0.83752013     0.14000
H1312       H  0.82782875  0.38601263  0.80637017     0.13800
In1313     In  0.90558142  0.07535447  0.78441487     1.36900
C1314       C  0.94953297  0.12788490  0.81426414     0.76600
O1315       O  0.88552715  0.04999001  0.84821772    -0.61800
O1316       O  0.91887209  0.51482931  0.81411356    -0.52700
C1317       C  0.85042395  0.04515254  0.77062352     0.69300
O1318       O  0.85199111  0.07799680  0.79368123    -0.47600
C1319       C  0.88755452  0.09118295  0.70134650     0.74000
O1320       O  0.91777615  0.13208261  0.81889854    -0.59400
O1321       O  0.91286995  0.06853965  0.71115992    -0.49500
O1322       O  0.95908872  0.09646135  0.79303438    -0.55900
C1323       C  0.89416310  0.51795512  0.84090898     0.84200
O1324       O  0.87804529  0.02974510  0.75689089    -0.57800
O1325       O  0.87703885  0.11304426  0.73282399    -0.61000
C1326       C  0.77871558  0.07526227  0.59599664     0.85500
C1327       C  0.75831442  0.10479340  0.62535548    -0.54700
C1328       C  0.72389187  0.10385637  0.61900110     0.08500
C1329       C  0.71188989  0.07368130  0.58402099     0.19400
C1330       C  0.76084501  0.03295190  0.60264260    -0.55400
C1331       C  0.72628120  0.03186625  0.59607509     0.08600
C1332       C  0.76594923  0.08748811  0.54873754    -0.54900
C1333       C  0.73076105  0.08706371  0.54306801     0.09100
H1334       H  0.77010362  0.12599007  0.64798615     0.13700
H1335       H  0.68393668  0.07286208  0.57975190    -0.00600
H1336       H  0.77401334  0.00606311  0.61350963     0.14000
H1337       H  0.78303216  0.09403998  0.52196250     0.13800
In1338     In  0.69206295  0.43795904  0.66984197     1.36900
C1339       C  0.64814408  0.38517432  0.64007097     0.76600
O1340       O  0.72159840  0.40018701  0.72061888    -0.61800
O1341       O  0.68527845  0.44368528  0.74328035    -0.52700
C1342       C  0.74604386  0.47002399  0.68445091     0.69300
O1343       O  0.74517243  0.43723389  0.66122689    -0.47600
C1344       C  0.70475879  0.99562753  0.60909000     0.74000
O1345       O  0.67991810  0.38102406  0.63554833    -0.59400
O1346       O  0.67919710  0.99968081  0.63436881    -0.49500
O1347       O  0.63854186  0.41659320  0.66130626    -0.55900
C1348       C  0.71098735  0.42147321  0.75251826     0.84200
O1349       O  0.70779245  0.99327132  0.69947946    -0.57800
O1350       O  0.71610638  0.95912673  0.60682142    -0.61000
C1351       C  0.82016824  0.07563963  0.60635213     0.85500
C1352       C  0.83995685  0.10715664  0.57864783    -0.54700
C1353       C  0.87448170  0.10640805  0.58412992     0.08500
C1354       C  0.88723194  0.07486816  0.61723020     0.19400
C1355       C  0.83842028  0.03417777  0.59732655    -0.55400
C1356       C  0.87309103  0.03348463  0.60281954     0.08600
C1357       C  0.83316944  0.08602240  0.65385467    -0.54900
C1358       C  0.86842163  0.08610894  0.65901261     0.09100
H1359       H  0.82773466  0.12907773  0.55726437     0.13700
H1360       H  0.91521161  0.07441862  0.62125348    -0.00600
H1361       H  0.82503231  0.00730024  0.58654779     0.14000
H1362       H  0.81622505  0.09161368  0.68097923     0.13800
In1363     In  0.90715054  0.44283669  0.53209969     1.36900
C1364       C  0.95040139  0.38936008  0.56192017     0.76600
O1365       O  0.87651738  0.40869708  0.98574151    -0.61800
O1366       O  0.91616242  0.44454511  0.95720864    -0.52700
C1367       C  0.85626409  0.48019292  0.51493137     0.69300
O1368       O  0.85493925  0.44621409  0.53611188    -0.47600
C1369       C  0.89428405  0.99735263  0.58875938     0.74000
O1370       O  0.91854518  0.38529436  0.56583247    -0.59400
O1371       O  0.91627547  0.99983959  0.55827752    -0.49500
O1372       O  0.96038853  0.42096578  0.54116182    -0.55900
C1373       C  0.88836416  0.42500993  0.95125479     0.84200
O1374       O  0.87469715  0.97760718  0.00683157    -0.57800
O1375       O  0.88533408  0.96086129  0.59756559    -0.61000
C1376       C  0.77880357  0.43785686  0.84686557     0.85500
C1377       C  0.76560148  0.42686032  0.79960698    -0.54700
C1378       C  0.73034319  0.42666156  0.79469681     0.08500
C1379       C  0.71173965  0.43835478  0.83650073     0.19400
C1380       C  0.76061867  0.47944194  0.85543540    -0.55400
C1381       C  0.72592387  0.48000000  0.85014695     0.08600
C1382       C  0.75920700  0.40657406  0.87515946    -0.54900
C1383       C  0.72464087  0.40707181  0.86985896     0.09100
H1384       H  0.78242974  0.42096176  0.77245095     0.13700
H1385       H  0.68374161  0.43872955  0.83268488    -0.00600
H1386       H  0.77402341  0.50639814  0.86580620     0.14000
H1387       H  0.77163703  0.38481861  0.89654293     0.13800
In1388     In  0.68887842  0.07143093  0.92083806     1.36900
C1389       C  0.64645626  0.12541236  0.89015561     0.76600
O1390       O  0.71599548  0.05261124  0.85896040    -0.61800
O1391       O  0.68266796  0.51445565  0.89386015    -0.52700
C1392       C  0.73420325  0.02698164  0.94327466     0.69300
O1393       O  0.73895748  0.06054310  0.92240930    -0.47600
C1394       C  0.71135645  0.09153816  0.50076789     0.74000
O1395       O  0.67836466  0.12868468  0.88595211    -0.59400
O1396       O  0.68342144  0.07246188  0.49426415    -0.49500
O1397       O  0.63603915  0.09430123  0.91144150    -0.55900
C1398       C  0.70473165  0.51640634  0.86346598     0.84200
O1399       O  0.70354751  0.01624597  0.95239763    -0.57800
O1400       O  0.72324058  0.10850250  0.96682516    -0.61000
C1401       C  0.80503742  0.49215248  0.99656025    -0.02800
C1402       C  0.83638739  0.51282725  0.99294746     0.06900
C1403       C  0.81902532  0.01634346  0.98477511    -0.02900
C1404       C  0.79453844  0.02537122  0.95506806    -0.02900
C1405       C  0.76307016  0.00497834  0.95846845     0.07000
C1406       C  0.78063350  0.50051596  0.96658350    -0.03100
Br1407     Br  0.74377960  0.46040315  0.96175447    -0.01600
Br1408     Br  0.79315214  0.45154208  0.04121892    -0.01700
Br1409     Br  0.80660981  0.06584187  0.91042079    -0.01700
Br1410     Br  0.85744600  0.05727860  0.48959784    -0.01700
C1411       C  0.83318774  0.47803163  0.72530045    -0.02800
C1412       C  0.81946058  0.02704065  0.75632761     0.06900
C1413       C  0.78922078  0.04992864  0.75741971    -0.02900
C1414       C  0.76281250  0.03816093  0.73053364    -0.02900
C1415       C  0.77679603  0.48852395  0.69858347     0.07000
C1416       C  0.80693661  0.46536932  0.69874765    -0.03100
Br1417     Br  0.81374384  0.41660721  0.66359721    -0.01600
Br1418     Br  0.87333751  0.44385072  0.72929911    -0.01700
Br1419     Br  0.72216380  0.07173934  0.72937278    -0.01700
Br1420     Br  0.78242571  0.09660590  0.79550321    -0.01700
C1421       C  0.55233659  0.22571259  0.50380100    -0.02800
C1422       C  0.51989223  0.24923281  0.00049254     0.06900
C1423       C  0.51635480  0.28404215  0.97360482    -0.02900
C1424       C  0.54278142  0.29468388  0.94644519    -0.02900
C1425       C  0.57303211  0.27185023  0.94857072     0.07000
C1426       C  0.57587598  0.23633954  0.97448205    -0.03100
Br1427     Br  0.61597880  0.19823662  0.47059553    -0.01600
Br1428     Br  0.56240404  0.18440843  0.54766757    -0.01700
Br1429     Br  0.53571334  0.33995550  0.90638710    -0.01700
Br1430     Br  0.98842198  0.31282121  0.98783331    -0.01700
C1431       C  0.57143784  0.26902438  0.71929109    -0.02800
C1432       C  0.56824448  0.23204856  0.69556960     0.06900
C1433       C  0.53803582  0.20895450  0.69579730    -0.02900
C1434       C  0.51149813  0.22215288  0.72166031    -0.02900
C1435       C  0.51567932  0.25819436  0.74637599     0.07000
C1436       C  0.54698852  0.27878014  0.74892000    -0.03100
Br1437     Br  0.55871044  0.31979677  0.79285056    -0.01600
Br1438     Br  0.60914382  0.30758776  0.71371304    -0.01700
Br1439     Br  0.98671242  0.20021739  0.73391840    -0.01700
Br1440     Br  0.53171740  0.15942661  0.66185256    -0.01700
In1441     In  0.93980715  0.82176220  0.28266844     1.36900
C1442       C  0.89692277  0.87566145  0.31248676     0.76600
O1443       O  0.97376727  0.85880994  0.23619349    -0.61800
O1444       O  0.93388567  0.82225141  0.20921409    -0.52700
C1445       C  0.98586145  0.77803446  0.26066435     0.69300
O1446       O  0.99022610  0.81155524  0.28177709    -0.47600
C1447       C  0.95476655  0.76630152  0.34317877     0.74000
O1448       O  0.92880279  0.87924009  0.31681580    -0.59400
O1449       O  0.92864150  0.76211634  0.31887255    -0.49500
O1450       O  0.88676447  0.84421097  0.29158609    -0.55900
C1451       C  0.96163153  0.84160522  0.20235711     0.84200
O1452       O  0.95534401  0.76688618  0.25145941    -0.57800
O1453       O  0.96634133  0.80278159  0.34477619    -0.61000
C1454       C  0.52866559  0.68976055  0.35612437     0.85500
C1455       C  0.00914668  0.65768815  0.32689822    -0.54700
C1456       C  0.97467918  0.65820619  0.33271445     0.08500
C1457       C  0.96225679  0.68818854  0.36773336     0.19400
C1458       C  0.01110244  0.72958299  0.34930480    -0.55400
C1459       C  0.97647236  0.73020360  0.35572471     0.08600
C1460       C  0.01624212  0.67547095  0.40354312    -0.54900
C1461       C  0.98108681  0.67543321  0.40895733     0.09100
H1462       H  0.52053141  0.63724636  0.30592352     0.13700
H1463       H  0.93427829  0.68853400  0.37181631    -0.00600
H1464       H  0.52373606  0.75828213  0.33618088     0.14000
H1465       H  0.53297986  0.67312766  0.43064288     0.13800
C1466       C  0.56771483  0.82772897  0.09715640     0.85500
C1467       C  0.58053195  0.83929801  0.04976553    -0.54700
C1468       C  0.61573937  0.83991751  0.04446003     0.08500
C1469       C  0.63465335  0.82787146  0.08579808     0.19400
C1470       C  0.58624290  0.78610491  0.10518578    -0.55400
C1471       C  0.62091088  0.78594236  0.09901159     0.08600
C1472       C  0.58745530  0.85869599  0.12572096    -0.54900
C1473       C  0.62193480  0.85852305  0.11979008     0.09100
H1474       H  0.56352419  0.84506695  0.02275012     0.13700
H1475       H  0.66262544  0.82777179  0.08164088    -0.00600
H1476       H  0.57322832  0.75886770  0.11630812     0.14000
H1477       H  0.57524643  0.88013167  0.14764442     0.13800
In1478     In  0.65665302  0.69061973  0.16935950     1.36500
C1479       C  0.69984987  0.63815042  0.13867142     0.76600
O1480       O  0.63294653  0.71332069  0.10638580    -0.61800
O1481       O  0.66725505  0.75367760  0.13920898    -0.52700
C1482       C  0.60553465  0.72592984  0.18761491     0.69300
O1483       O  0.60466124  0.69372545  0.16353841    -0.47600
C1484       C  0.63752341  0.67213833  0.25156809     0.74000
O1485       O  0.66801568  0.63335622  0.13557646    -0.59400
O1486       O  0.66385150  0.69359936  0.24284529    -0.49500
O1487       O  0.70981743  0.67013847  0.15874817    -0.55900
C1488       C  0.64291228  0.75008512  0.11191349     0.84200
O1489       O  0.63437870  0.73929340  0.20065942    -0.57800
O1490       O  0.62610686  0.65229921  0.21900324    -0.61000
C1491       C  0.52623242  0.82718982  0.10726302     0.85500
C1492       C  0.01585989  0.83766691  0.15419205    -0.54700
C1493       C  0.98073275  0.83742573  0.15985831     0.08500
C1494       C  0.96178282  0.82461052  0.11877488     0.19400
C1495       C  0.01060104  0.78393765  0.09943403    -0.55400
C1496       C  0.97606285  0.78289649  0.10613352     0.08600
C1497       C  0.00832473  0.85594455  0.07775749    -0.54900
C1498       C  0.97389008  0.85501389  0.08402478     0.09100
H1499       H  0.53017530  0.84617902  0.18109561     0.13700
H1500       H  0.93383421  0.82388480  0.12312388    -0.00600
H1501       H  0.52197069  0.75789281  0.09008175     0.14000
H1502       H  0.51785851  0.87858827  0.05597236     0.13800
In1503     In  0.93918227  0.69288440  0.03101510     1.36900
C1504       C  0.89596277  0.63918865  0.06060582     0.76600
O1505       O  0.96624430  0.71061081  0.09294345    -0.61800
O1506       O  0.92812599  0.75156124  0.06881531    -0.52700
C1507       C  0.98369436  0.73909045  0.00780914     0.69300
O1508       O  0.98900503  0.70593072  0.02900574    -0.47600
C1509       C  0.96200316  0.67172637  0.45150921     0.74000
O1510       O  0.92780474  0.63563996  0.06525815    -0.59400
O1511       O  0.93455018  0.69154372  0.45839519    -0.49500
O1512       O  0.88598712  0.67042442  0.03926131    -0.55900
C1513       C  0.95446883  0.74697813  0.09260835     0.84200
O1514       O  0.95717563  0.74598961  0.50143905    -0.57800
O1515       O  0.97386421  0.65417326  0.48526392    -0.61000
C1516       C  0.57016869  0.68971272  0.34622165     0.85500
C1517       C  0.59001028  0.65979400  0.37574487    -0.54700
C1518       C  0.62447451  0.66014876  0.36995900     0.08500
C1519       C  0.63717938  0.69032007  0.33527930     0.19400
C1520       C  0.58833586  0.73175001  0.35321635    -0.55400
C1521       C  0.62303564  0.73234760  0.34749996     0.08600
C1522       C  0.58320049  0.67732343  0.29926449    -0.54900
C1523       C  0.61840846  0.67725070  0.29400383     0.09100
H1524       H  0.57780285  0.63842305  0.39781546     0.13700
H1525       H  0.66516525  0.69066427  0.33128924    -0.00600
H1526       H  0.57508033  0.75892739  0.36349330     0.14000
H1527       H  0.56626842  0.67083212  0.27236952     0.13800
In1528     In  0.65675715  0.82645476  0.42072569     1.36900
C1529       C  0.70020899  0.87947539  0.39044005     0.76600
O1530       O  0.62438780  0.86311032  0.46929672    -0.61800
O1531       O  0.66226660  0.82509058  0.99463292    -0.52700
C1532       C  0.60694367  0.78707226  0.43794749     0.69300
O1533       O  0.60483928  0.82101400  0.41679806    -0.47600
C1534       C  0.64449396  0.76853963  0.36111182     0.74000
O1535       O  0.66839158  0.88357724  0.38609055    -0.59400
O1536       O  0.66879176  0.76490009  0.38845577    -0.49500
O1537       O  0.70992049  0.84841006  0.41220883    -0.55900
C1538       C  0.63516176  0.84531783  0.00234730     0.84200
O1539       O  0.63637130  0.77430964  0.44947193    -0.57800
O1540       O  0.63371484  0.80510899  0.35688470    -0.61000
C1541       C  0.81984845  0.93701554  0.35564135     0.85500
C1542       C  0.83295796  0.92585013  0.40287414    -0.54700
C1543       C  0.86820235  0.92525253  0.40776684     0.08500
C1544       C  0.88694736  0.93681609  0.36600638     0.19400
C1545       C  0.83837356  0.97845930  0.34721754    -0.55400
C1546       C  0.87309775  0.97867131  0.35256427     0.08600
C1547       C  0.83920869  0.90570399  0.32718652    -0.54900
C1548       C  0.87374574  0.90573674  0.33253454     0.09100
H1549       H  0.81611412  0.92038338  0.43013821     0.13700
H1550       H  0.91494672  0.93687114  0.36984736    -0.00600
H1551       H  0.82510044  0.00574850  0.33738389     0.14000
H1552       H  0.82663599  0.88398192  0.30586309     0.13800
In1553     In  0.90678393  0.57792189  0.27971498     1.36900
C1554       C  0.95074546  0.62986745  0.31114221     0.76600
O1555       O  0.88092210  0.55782214  0.34195246    -0.61800
O1556       O  0.91755262  0.01258812  0.31031832    -0.52700
C1557       C  0.86047822  0.53389085  0.25822792     0.69300
O1558       O  0.85594464  0.56752424  0.27915228    -0.47600
C1559       C  0.88551069  0.59773485  0.19954822     0.74000
O1560       O  0.91892834  0.63441961  0.31532486    -0.59400
O1561       O  0.91334188  0.57879553  0.20654963    -0.49500
O1562       O  0.96018196  0.59895362  0.28892563    -0.55900
C1563       C  0.89460984  0.01500898  0.33963384     0.84200
O1564       O  0.89097842  0.52327074  0.24853032    -0.57800
O1565       O  0.87313686  0.61497919  0.23320661    -0.61000
C1566       C  0.77725951  0.57821924  0.09534782     0.85500
C1567       C  0.75768534  0.60956830  0.12333372    -0.54700
C1568       C  0.72317235  0.60868950  0.11835232     0.08500
C1569       C  0.71013113  0.57700282  0.08548659     0.19400
C1570       C  0.75922635  0.53647941  0.10444063    -0.55400
C1571       C  0.72443486  0.53556709  0.09956847     0.08600
C1572       C  0.76392404  0.58854334  0.04818603    -0.54900
C1573       C  0.72870546  0.58844217  0.04355519     0.09100
H1574       H  0.77004929  0.63182665  0.14425599     0.13700
H1575       H  0.68212580  0.57651513  0.08175568    -0.00600
H1576       H  0.77287825  0.50953578  0.11418236     0.14000
H1577       H  0.78061613  0.59427620  0.02081332     0.13800
In1578     In  0.69011091  0.93970749  0.16971936     1.36900
C1579       C  0.64579620  0.88761984  0.14007688     0.76600
O1580       O  0.72277986  0.90242323  0.21748496    -0.61800
O1581       O  0.68395554  0.94114221  0.24322445    -0.52700
C1582       C  0.73800416  0.98108405  0.18958973     0.69300
O1583       O  0.74140931  0.94710357  0.16885386    -0.47600
C1584       C  0.70328595  0.49905675  0.11343255     0.74000
O1585       O  0.67755410  0.88306468  0.13539014    -0.59400
O1586       O  0.68098486  0.50124822  0.14358336    -0.49500
O1587       O  0.63646872  0.91901523  0.16158102    -0.55900
C1588       C  0.71111098  0.92096142  0.25077651     0.84200
O1589       O  0.72059111  0.48130647  0.19620961    -0.57800
O1590       O  0.71248744  0.46261468  0.10491055    -0.61000
C1591       C  0.81869865  0.57890177  0.10489211     0.85500
C1592       C  0.83822223  0.60897560  0.07506969    -0.54700
C1593       C  0.87265204  0.60942163  0.08100059     0.08500
C1594       C  0.88556857  0.57989979  0.11612662     0.19400
C1595       C  0.83739712  0.53723948  0.09834076    -0.55400
C1596       C  0.87203220  0.53741482  0.10450528     0.08600
C1597       C  0.83139684  0.59177649  0.15185017    -0.54900
C1598       C  0.86651932  0.59277605  0.15716745     0.09100
H1599       H  0.82582484  0.62974352  0.05259086     0.13700
H1600       H  0.91354349  0.58023408  0.12021490    -0.00600
H1601       H  0.82468475  0.50984718  0.08808967     0.14000
H1602       H  0.81434534  0.59744745  0.17887940     0.13800
In1603     In  0.90444519  0.93460423  0.03392384     1.36900
C1604       C  0.94957186  0.88340272  0.06367909     0.76600
O1605       O  0.87678878  0.89740640  0.48114788    -0.61800
O1606       O  0.91235862  0.94271081  0.46040379    -0.52700
C1607       C  0.84778286  0.96161384  0.02180183     0.69300
O1608       O  0.85059494  0.92924836  0.04538792    -0.47600
C1609       C  0.89420443  0.50169071  0.09175489     0.74000
O1610       O  0.91790136  0.87804311  0.06821345    -0.59400
O1611       O  0.92065308  0.50640410  0.06811376    -0.49500
O1612       O  0.95839435  0.91514097  0.04243027    -0.55900
C1613       C  0.88728801  0.91979039  0.45005113     0.84200
O1614       O  0.88537840  0.49405411  0.50345804    -0.57800
O1615       O  0.88286879  0.46507418  0.09244260    -0.61000
C1616       C  0.77836391  0.93763878  0.34584763     0.85500
C1617       C  0.76541881  0.92556657  0.29868026    -0.54700
C1618       C  0.73025426  0.92551376  0.29326699     0.08500
C1619       C  0.71144610  0.93841589  0.33449327     0.19400
C1620       C  0.76035178  0.97975355  0.35305147    -0.55400
C1621       C  0.72568043  0.98042660  0.34664639     0.08600
C1622       C  0.75831137  0.90783254  0.37526760    -0.54900
C1623       C  0.72388976  0.90837421  0.36943092     0.09100
H1624       H  0.78239775  0.91957546  0.27166664     0.13700
H1625       H  0.68346785  0.93875037  0.33043090    -0.00600
H1626       H  0.77352127  0.00665806  0.36432918     0.14000
H1627       H  0.77033158  0.88669240  0.39770109     0.13800
In1628     In  0.69104033  0.57660080  0.41894778     1.36900
C1629       C  0.64790596  0.63045186  0.38995955     0.76600
O1630       O  0.71342210  0.55427285  0.35499756    -0.61800
O1631       O  0.67780019  0.01198014  0.38405254    -0.52700
C1632       C  0.74265723  0.54054233  0.43498620     0.69300
O1633       O  0.74321238  0.57421067  0.41322347    -0.47600
C1634       C  0.70975769  0.59394558  0.00140849     0.74000
O1635       O  0.67972507  0.63422067  0.38526209    -0.59400
O1636       O  0.68563931  0.57001120  0.99009465    -0.49500
O1637       O  0.63799072  0.59894785  0.41091232    -0.55900
C1638       C  0.70391764  0.01638221  0.35973065     0.84200
O1639       O  0.71394581  0.52634976  0.44751656    -0.57800
O1640       O  0.72212967  0.61348114  0.46880464    -0.61000
C1641       C  0.78711144  0.95803805  0.50919185    -0.02800
C1642       C  0.81728521  0.98115592  0.50823938     0.06900
C1643       C  0.82949071  0.53450995  0.47352752    -0.02900
C1644       C  0.80357508  0.54360140  0.44526774    -0.02900
C1645       C  0.77312129  0.52117954  0.44851133     0.07000
C1646       C  0.75991749  0.97114650  0.48424453    -0.03100
Br1647     Br  0.71887194  0.93824596  0.48419477    -0.01600
Br1648     Br  0.78197700  0.90857209  0.54360690    -0.01700
Br1649     Br  0.81163364  0.58634401  0.40228576    -0.01700
Br1650     Br  0.88154737  0.58042407  0.96569485    -0.01700
C1651       C  0.82321660  0.99118518  0.22998773    -0.02800
C1652       C  0.83170881  0.51131018  0.24350027     0.06900
C1653       C  0.80010551  0.53108469  0.24709259    -0.02900
C1654       C  0.77570292  0.52211433  0.21725040    -0.02900
C1655       C  0.76725079  0.00285633  0.20384564     0.07000
C1656       C  0.79854244  0.98244003  0.20019401    -0.03100
Br1657     Br  0.80969797  0.94275495  0.15475037    -0.01600
Br1658     Br  0.86084235  0.95252232  0.23433637    -0.01700
Br1659     Br  0.73778412  0.56040375  0.21258930    -0.01700
Br1660     Br  0.78755496  0.56972346  0.29278308    -0.01700
C1661       C  0.55377097  0.72389430  0.00706637    -0.02800
C1662       C  0.52452954  0.74490327  0.50493074     0.06900
C1663       C  0.52102730  0.77906411  0.47726150    -0.02900
C1664       C  0.54614183  0.78704239  0.44759509    -0.02900
C1665       C  0.57716870  0.76610162  0.45173427     0.07000
C1666       C  0.58107479  0.73236184  0.47997913    -0.03100
Br1667     Br  0.61841980  0.69739127  0.97574472    -0.01600
Br1668     Br  0.56246827  0.68127865  0.04993621    -0.01700
Br1669     Br  0.53617189  0.82631059  0.40161555    -0.01700
Br1670     Br  0.97241070  0.82509835  0.47045962    -0.01700
C1671       C  0.57850170  0.78237093  0.22506369    -0.02800
C1672       C  0.57536156  0.74494198  0.20238418     0.06900
C1673       C  0.54491922  0.72217788  0.20168559    -0.02900
C1674       C  0.51833875  0.73532183  0.22701319    -0.02900
C1675       C  0.52161288  0.77258148  0.25010447     0.07000
C1676       C  0.55226305  0.79489777  0.25121199    -0.03100
Br1677     Br  0.56046200  0.84243394  0.28817664    -0.01600
Br1678     Br  0.61800920  0.81834110  0.22082328    -0.01700
Br1679     Br  0.96980648  0.68889198  0.21754921    -0.01700
Br1680     Br  0.53799165  0.67228379  0.16767209    -0.01700
In1681     In  0.93982398  0.82120714  0.78315485     1.36900
C1682       C  0.89678768  0.87457681  0.81302320     0.76600
O1683       O  0.97271353  0.85892585  0.73615188    -0.61800
O1684       O  0.93368669  0.82068201  0.70971942    -0.52700
C1685       C  0.98721730  0.77939680  0.76207247     0.69300
O1686       O  0.99066659  0.81312656  0.78312015    -0.47600
C1687       C  0.95493011  0.76557450  0.84343722     0.74000
O1688       O  0.92864437  0.87842537  0.81723555    -0.59400
O1689       O  0.92902323  0.76119769  0.81878736    -0.49500
O1690       O  0.88668527  0.84305899  0.79220186    -0.55900
C1691       C  0.96094800  0.84094157  0.70257167     0.84200
O1692       O  0.95708111  0.76730082  0.75228135    -0.57800
O1693       O  0.96615312  0.80218339  0.84545907    -0.61000
C1694       C  0.52890098  0.69006959  0.85625345     0.85500
C1695       C  0.00959308  0.65709991  0.82753608    -0.54700
C1696       C  0.97515206  0.65748346  0.83362720     0.08500
C1697       C  0.96275525  0.68768999  0.86833590     0.19400
C1698       C  0.01142425  0.72918893  0.84947251    -0.55400
C1699       C  0.97681535  0.72966970  0.85603088     0.08600
C1700       C  0.01682074  0.67531490  0.90402462    -0.54900
C1701       C  0.98164489  0.67517939  0.90953087     0.09100
H1702       H  0.52122029  0.63810111  0.80532984     0.13700
H1703       H  0.93478005  0.68800284  0.87245124    -0.00600
H1704       H  0.52363375  0.75883703  0.83714811     0.14000
H1705       H  0.53299358  0.67247537  0.93051942     0.13800
C1706       C  0.56833078  0.82753363  0.59709324     0.85500
C1707       C  0.58126243  0.83830546  0.54960310    -0.54700
C1708       C  0.61648122  0.83873155  0.54442307     0.08500
C1709       C  0.63530788  0.82733018  0.58612575     0.19400
C1710       C  0.58675179  0.78605891  0.60586912    -0.55400
C1711       C  0.62141441  0.78571779  0.60011219     0.08600
C1712       C  0.58798698  0.85889915  0.62519634    -0.54900
C1713       C  0.62248802  0.85845817  0.61959617     0.09100
H1714       H  0.56430591  0.84368516  0.52243929     0.13700
H1715       H  0.66328930  0.82707741  0.58209864    -0.00600
H1716       H  0.57357805  0.75892486  0.61678933     0.14000
H1717       H  0.57571232  0.88059970  0.64677379     0.13800
In1718     In  0.65512120  0.68818244  0.66902692     1.36500
C1719       C  0.69958769  0.63690992  0.63850861     0.76600
O1720       O  0.63398754  0.71318740  0.60561190    -0.61800
O1721       O  0.66585620  0.75275866  0.64301377    -0.52700
C1722       C  0.59999326  0.71748836  0.68376277     0.69300
O1723       O  0.60156088  0.68470547  0.66061691    -0.47600
C1724       C  0.63801438  0.67252509  0.75228862     0.74000
O1725       O  0.66786080  0.63168130  0.63453857    -0.59400
O1726       O  0.66316754  0.69533914  0.74195736    -0.49500
O1727       O  0.70882299  0.66865732  0.65948593    -0.55900
C1728       C  0.64304341  0.74981526  0.61359927     0.84200
O1729       O  0.62761750  0.73317258  0.69722235    -0.57800
O1730       O  0.62744930  0.65010105  0.72124634    -0.61000
C1731       C  0.52690138  0.82707397  0.60713828     0.85500
C1732       C  0.01528277  0.83740861  0.65465810    -0.54700
C1733       C  0.98011828  0.83703269  0.66011528     0.08500
C1734       C  0.96133499  0.82423342  0.61888799     0.19400
C1735       C  0.01039791  0.78361593  0.59996111    -0.55400
C1736       C  0.97579439  0.78256316  0.60636945     0.08600
C1737       C  0.00797762  0.85568533  0.57824168    -0.54900
C1738       C  0.97353879  0.85471595  0.58425632     0.09100
H1739       H  0.53088617  0.84601801  0.68106033     0.13700
H1740       H  0.93336767  0.82345175  0.62303897    -0.00600
H1741       H  0.52269631  0.75756859  0.59043827     0.14000
H1742       H  0.51840830  0.87807001  0.55533402     0.13800
In1743     In  0.94036037  0.69133671  0.53182930     1.36900
C1744       C  0.89687870  0.63818028  0.56195923     0.76600
O1745       O  0.96593213  0.71010407  0.59458545    -0.61800
O1746       O  0.92879297  0.75086069  0.56766224    -0.52700
C1747       C  0.98744604  0.73462997  0.51132091     0.69300
O1748       O  0.99130194  0.70092195  0.53228452    -0.47600
C1749       C  0.96228983  0.67159119  0.95189347     0.74000
O1750       O  0.92872400  0.63404189  0.56597283    -0.59400
O1751       O  0.93414528  0.69026856  0.95765085    -0.49500
O1752       O  0.88706531  0.66957086  0.54076444    -0.55900
C1753       C  0.95439583  0.74653709  0.59281346     0.84200
O1754       O  0.95279792  0.74893475  0.99908621    -0.57800
O1755       O  0.97438725  0.65573528  0.98646328    -0.61000
C1756       C  0.57045275  0.69030956  0.84654768     0.85500
C1757       C  0.59059897  0.66018100  0.87562304    -0.54700
C1758       C  0.62510249  0.66107804  0.86964297     0.08500
C1759       C  0.63744765  0.69175567  0.83542844     0.19400
C1760       C  0.58833784  0.73240083  0.85413726    -0.55400
C1761       C  0.62300725  0.73337859  0.84821849     0.08600
C1762       C  0.58356340  0.67847962  0.79946754    -0.54900
C1763       C  0.61876855  0.67866507  0.79430637     0.09100
H1764       H  0.57861493  0.63844171  0.89749127     0.13700
H1765       H  0.66541331  0.69256004  0.83123364    -0.00600
H1766       H  0.57487540  0.75928301  0.86508485     0.14000
H1767       H  0.56672518  0.67177353  0.77253409     0.13800
In1768     In  0.65629995  0.82758912  0.92124592     1.36900
C1769       C  0.70011832  0.87966568  0.89068396     0.76600
O1770       O  0.62385612  0.86472457  0.96945226    -0.61800
O1771       O  0.66286347  0.82347608  0.49427943    -0.52700
C1772       C  0.60591947  0.78913842  0.93819580     0.69300
O1773       O  0.60438074  0.82252142  0.91604124    -0.47600
C1774       C  0.64434666  0.76943543  0.86214325     0.74000
O1775       O  0.66834642  0.88428454  0.88648082    -0.59400
O1776       O  0.66830298  0.76573932  0.88996689    -0.49500
O1777       O  0.70962724  0.84859998  0.91259935    -0.55900
C1778       C  0.63579330  0.84373161  0.50214943     0.84200
O1779       O  0.63510234  0.77622168  0.95050970    -0.57800
O1780       O  0.63379898  0.80602261  0.85735533    -0.61000
C1781       C  0.81986208  0.93609280  0.85593124     0.85500
C1782       C  0.83286692  0.92506430  0.90325211    -0.54700
C1783       C  0.86810893  0.92432341  0.90817540     0.08500
C1784       C  0.88691330  0.93561013  0.86643334     0.19400
C1785       C  0.83852558  0.97736779  0.84736164    -0.55400
C1786       C  0.87321927  0.97741249  0.85279489     0.08600
C1787       C  0.83910942  0.90455345  0.82769170    -0.54900
C1788       C  0.87362412  0.90450990  0.83309291     0.09100
H1789       H  0.81597941  0.91981162  0.93051085     0.13700
H1790       H  0.91490851  0.93557656  0.87033033    -0.00600
H1791       H  0.82534734  0.00466830  0.83742035     0.14000
H1792       H  0.82649631  0.88285694  0.80637235     0.13800
In1793     In  0.90703401  0.57663958  0.78225415     1.36900
C1794       C  0.95118201  0.62870491  0.81290050     0.76600
O1795       O  0.88307177  0.55439434  0.84530422    -0.61800
O1796       O  0.91745852  0.01109192  0.81016565    -0.52700
C1797       C  0.85832872  0.53621325  0.76324089     0.69300
O1798       O  0.85536233  0.56968322  0.78508271    -0.47600
C1799       C  0.88626140  0.59570604  0.70122639     0.74000
O1800       O  0.91939416  0.63326413  0.81734617    -0.59400
O1801       O  0.91351783  0.57575203  0.70882062    -0.49500
O1802       O  0.96053178  0.59746988  0.79116445    -0.55900
C1803       C  0.89483313  0.01355603  0.83987212     0.84200
O1804       O  0.88804480  0.52467716  0.75127161    -0.57800
O1805       O  0.87438400  0.61403187  0.73452201    -0.61000
C1806       C  0.77790925  0.57777415  0.59615480     0.85500
C1807       C  0.75801126  0.60908695  0.62387860    -0.54700
C1808       C  0.72352831  0.60812523  0.61820206     0.08500
C1809       C  0.71097030  0.57651028  0.58501689     0.19400
C1810       C  0.75981233  0.53605516  0.60523812    -0.55400
C1811       C  0.72510622  0.53514677  0.59943239     0.08600
C1812       C  0.76505192  0.58801176  0.54861168    -0.54900
C1813       C  0.72988035  0.58795208  0.54334218     0.09100
H1814       H  0.77013312  0.63107999  0.64533777     0.13700
H1815       H  0.68300261  0.57589741  0.58086517    -0.00600
H1816       H  0.77327447  0.50933672  0.61624783     0.14000
H1817       H  0.78203865  0.59360268  0.52149402     0.13800
In1818     In  0.69037347  0.93959764  0.66964552     1.36900
C1819       C  0.64627359  0.88746270  0.64002063     0.76600
O1820       O  0.72306608  0.90238306  0.71737263    -0.61800
O1821       O  0.68422819  0.94107452  0.74314168    -0.52700
C1822       C  0.73792004  0.98141755  0.68959693     0.69300
O1823       O  0.74155083  0.94734832  0.66910168    -0.47600
C1824       C  0.70364740  0.49897670  0.61323724     0.74000
O1825       O  0.67803106  0.88302874  0.63523201    -0.59400
O1826       O  0.68059875  0.50187898  0.64240073    -0.49500
O1827       O  0.63685846  0.91870761  0.66170679    -0.55900
C1828       C  0.71136567  0.92085952  0.75068430     0.84200
O1829       O  0.71808074  0.48482792  0.69822513    -0.57800
O1830       O  0.71314316  0.46238712  0.60599324    -0.61000
C1831       C  0.81928014  0.57828095  0.60615099     0.85500
C1832       C  0.83892610  0.60879171  0.57698695    -0.54700
C1833       C  0.87338053  0.60884595  0.58276234     0.08500
C1834       C  0.88619010  0.57864662  0.61730665     0.19400
C1835       C  0.83770079  0.53656729  0.59880280    -0.55400
C1836       C  0.87238762  0.53649537  0.60471038     0.08600
C1837       C  0.83204623  0.59033234  0.65334490    -0.54900
C1838       C  0.86722166  0.59097476  0.65870010     0.09100
H1839       H  0.82659429  0.62987821  0.55478134     0.13700
H1840       H  0.91416980  0.57869067  0.62135368    -0.00600
H1841       H  0.82460540  0.50926704  0.58843298     0.14000
H1842       H  0.81496970  0.59595182  0.68036133     0.13800
In1843     In  0.90476008  0.93491783  0.53356794     1.36900
C1844       C  0.94941493  0.88324490  0.56368325     0.76600
O1845       O  0.87694204  0.89656735  0.98150476    -0.61800
O1846       O  0.91195644  0.94251839  0.96082093    -0.52700
C1847       C  0.84861797  0.96316766  0.52125631     0.69300
O1848       O  0.85109427  0.93054824  0.54450559    -0.47600
C1849       C  0.89418948  0.50064992  0.59138398     0.74000
O1850       O  0.91769105  0.87795983  0.56765466    -0.59400
O1851       O  0.91857524  0.50462136  0.56419701    -0.49500
O1852       O  0.95851001  0.91504399  0.54270000    -0.55900
C1853       C  0.88720009  0.91913127  0.95043525     0.84200
O1854       O  0.89601153  0.50189607  0.99898301    -0.57800
O1855       O  0.88376482  0.46391522  0.59580973    -0.61000
C1856       C  0.77846827  0.93697182  0.84595206     0.85500
C1857       C  0.76557747  0.92502553  0.79874246    -0.54700
C1858       C  0.73042918  0.92521025  0.79324072     0.08500
C1859       C  0.71160510  0.93816903  0.83445243     0.19400
C1860       C  0.76058837  0.97916071  0.85310788    -0.55400
C1861       C  0.72595207  0.98008055  0.84670387     0.08600
C1862       C  0.75831913  0.90727924  0.87529713    -0.54900
C1863       C  0.72393446  0.90808389  0.86941437     0.09100
H1864       H  0.78258192  0.91896715  0.77177355     0.13700
H1865       H  0.68363387  0.93864904  0.83033611    -0.00600
H1866       H  0.77381861  0.00600088  0.86426110     0.14000
H1867       H  0.77022649  0.88613207  0.89781911     0.13800
In1868     In  0.69398115  0.57977859  0.91742463     1.36900
C1869       C  0.64920782  0.63182364  0.88887366     0.76600
O1870       O  0.71354770  0.55275327  0.85389394    -0.61800
O1871       O  0.67808961  0.01181437  0.88403034    -0.52700
C1872       C  0.75138307  0.55465022  0.92930058     0.69300
O1873       O  0.74797961  0.58735247  0.90643593    -0.47600
C1874       C  0.71083950  0.59304969  0.50101455     0.74000
O1875       O  0.68086921  0.63655540  0.88362686    -0.59400
O1876       O  0.68438741  0.57184935  0.49226080    -0.49500
O1877       O  0.64019325  0.59993703  0.90970302    -0.55900
C1878       C  0.70434717  0.01614372  0.85994982     0.84200
O1879       O  0.72477774  0.53778328  0.94381823    -0.57800
O1880       O  0.71995735  0.61738444  0.97108236    -0.61000
C1881       C  0.78624454  0.95611864  0.00912402    -0.02800
C1882       C  0.81638967  0.97931486  0.00850250     0.06900
C1883       C  0.84027005  0.54799961  0.96659895    -0.02900
C1884       C  0.81290720  0.56094719  0.94174724    -0.02900
C1885       C  0.78296913  0.53741783  0.94253984     0.07000
C1886       C  0.75895971  0.96963271  0.98448642    -0.03100
Br1887     Br  0.71753375  0.93749438  0.98485199    -0.01600
Br1888     Br  0.78138214  0.90604190  0.04249801    -0.01700
Br1889     Br  0.81746181  0.61035525  0.90729648    -0.01700
Br1890     Br  0.86825797  0.57153443  0.47501411    -0.01700
C1891       C  0.82262981  0.99117792  0.73084771    -0.02800
C1892       C  0.82905071  0.51400701  0.75011206     0.06900
C1893       C  0.79786512  0.53447414  0.75278045    -0.02900
C1894       C  0.77353603  0.52511408  0.72276538    -0.02900
C1895       C  0.76706594  0.00337377  0.70383019     0.07000
C1896       C  0.79832991  0.98291042  0.70045466    -0.03100
Br1897     Br  0.80987196  0.94365126  0.65474865    -0.01600
Br1898     Br  0.85983104  0.95196490  0.73572268    -0.01700
Br1899     Br  0.73633078  0.56388338  0.71634508    -0.01700
Br1900     Br  0.78631688  0.57412726  0.79782480    -0.01700
C1901       C  0.55525862  0.72330981  0.50858608    -0.02800
C1902       C  0.52308087  0.74571820  0.00433088     0.06900
C1903       C  0.51966271  0.78103458  0.97830159    -0.02900
C1904       C  0.54511784  0.79069211  0.94960180    -0.02900
C1905       C  0.57587472  0.76892408  0.95228472     0.07000
C1906       C  0.57948650  0.73386692  0.97871166    -0.03100
Br1907     Br  0.62064560  0.69672832  0.47960264    -0.01600
Br1908     Br  0.56391873  0.68282716  0.55353437    -0.01700
Br1909     Br  0.53580702  0.83326017  0.90680802    -0.01700
Br1910     Br  0.96657511  0.82790419  0.96467584    -0.01700
C1911       C  0.57202266  0.77251578  0.72174310    -0.02800
C1912       C  0.56907696  0.73555210  0.69796057     0.06900
C1913       C  0.53872886  0.71268833  0.69705741    -0.02900
C1914       C  0.51163078  0.72614541  0.72178562    -0.02900
C1915       C  0.51545408  0.76221135  0.74666637     0.07000
C1916       C  0.54677997  0.78282081  0.75005919    -0.03100
Br1917     Br  0.55755399  0.82488389  0.79330782    -0.01600
Br1918     Br  0.61013390  0.81084907  0.71737898    -0.01700
Br1919     Br  0.97286655  0.68867008  0.72222870    -0.01700
Br1920     Br  0.53286061  0.66319200  0.66280692    -0.01700
loop_ 
_geom_bond_atom_site_label_1 
_geom_bond_atom_site_label_2 
_geom_bond_distance 
_geom_bond_site_symmetry_2 
_ccdc_geom_bond_type 
In1           O3   2.300       .  S
In1           O4   2.269       .  S
In1          O12   2.088       .  S
In1           O6   2.051       .  S
In1           O8   2.191       .  S
In1           O9   2.289       .  S
In1          O10   2.236       .  S
In1          O13   2.269       .  S
C2            O8   1.270       .  A
C2           O10   1.274       .  A
C2          C108   1.476       .  S
O3           C11   1.274       .  A
O4           C11   1.280       .  A
C5           O12   1.286       .  A
C5            O6   1.286       .  A
C5         C1195   1.423       .  S
C7            O9   1.280       .  A
C7           O13   1.274       .  A
C7           C19   1.510       .  S
C11          C53   1.514       .  S
C14          C76   1.661       .  S
C14         C975   1.544       .  S
C14         C980   1.583       .  S
C14         C978   1.558       .  S
C15         C974   1.546       .  S
C15          C16   1.372       .  D
C15         H982   1.084       .  S
C16         C114   1.475       .  S
C16          C17   1.532       .  S
C17          C21   1.526       .  S
C17          C19   1.527       .  S
C17          H23   1.111       .  S
C18         C974   1.561       .  S
C18          C19   1.381       .  D
C18         H984   1.078       .  S
C20         C974   1.585       .  S
C20          C21   1.398       .  D
C20         H985   1.084       .  S
C21          C69   1.514       .  S
H22         C975   1.085       .  S
H24         C978   1.077       .  S
H25         C980   1.083       .  S
C26          C51   1.658       .  S
C26          C27   1.583       .  S
C26          C32   1.539       .  S
C26          C30   1.563       .  S
C27          C28   1.397       .  D
C27          H34   1.084       .  S
C28          C98   1.514       .  S
C28          C29   1.530       .  S
C29          C33   1.535       .  S
C29          C31   1.530       .  S
C29          H35   1.111       .  S
C30          C31   1.383       .  D
C30          H36   1.073       .  S
C31          C48   1.514       .  S
C32          C33   1.367       .  D
C32          H37   1.085       .  S
C33         C139   1.472       .  S
In38         O40   2.277       .  S
In38         O41   2.293       .  S
In38         O49   2.074       .  S
In38         O43   2.053       .  S
In38         O45   2.189       .  S
In38         O46   2.271       .  S
In38         O47   2.230       .  S
In38         O50   2.300       .  S
C39          O45   1.270       .  A
C39          O47   1.274       .  A
C39         C128   1.473       .  S
O40          C48   1.274       .  A
O41          C48   1.280       .  A
C42          O49   1.285       .  A
C42          O43   1.287       .  A
C42         C232   1.421       .  S
C44          O46   1.280       .  A
C44          O50   1.274       .  A
C44          C83   1.513       .  S
C51        C1012   1.582       .  S
C51        C1017   1.544       .  S
C51        C1015   1.554       .  S
C52        C1011   1.585       .  S
C52          C53   1.398       .  D
C52        H1019   1.084       .  S
C53          C54   1.526       .  S
C54          C58   1.531       .  S
C54          C56   1.524       .  S
C54          H60   1.111       .  S
C55        C1011   1.562       .  S
C55          C56   1.381       .  D
C55        H1021   1.079       .  S
C56          C73   1.508       .  S
C57        C1011   1.546       .  S
C57          C58   1.371       .  D
C57        H1022   1.085       .  S
C58         C164   1.473       .  S
H59        C1012   1.084       .  S
H61        C1015   1.075       .  S
H62        C1017   1.085       .  S
In63         O65   2.267       .  S
In63         O66   2.286       .  S
In63         O68   2.061       .  S
In63         O70   2.189       .  S
In63         O72   2.238       .  S
In63        O314   2.077       .  S
In63        O311   2.275   1_554  S
In63        O315   2.300   1_554  S
C64          O70   1.269       .  A
C64          O72   1.274       .  A
C64         C153   1.475       .  S
O65          C73   1.273       .  A
O66          C73   1.280       .  A
C67          O68   1.286       .  A
C67         O314   1.284       .  A
C67        C1422   1.424       .  S
C69          O71   1.280       .  A
C69          O75   1.274       .  A
O71        In303   2.270       .  S
O74        In303   2.071       .  S
O74         C307   1.283       .  A
O75        In303   2.301       .  S
C76          C77   1.543       .  S
C76          C82   1.584       .  S
C76          C80   1.561       .  S
C77          C78   1.369       .  D
C77          H84   1.084       .  S
C78         C189   1.474       .  S
C78          C79   1.536       .  S
C79          C83   1.528       .  S
C79          C81   1.530       .  S
C79          H85   1.111       .  S
C80          C81   1.380       .  D
C80          H86   1.079       .  S
C81          C94   1.513       .  S
C82          C83   1.397       .  D
C82          H87   1.084       .  S
In88         O90   2.303       .  S
In88         O99   2.086       .  S
In88         O93   2.032       .  S
In88         O95   2.186       .  S
In88         O96   2.294       .  S
In88         O97   2.225       .  S
In88        O100   2.271       .  S
In88        O331   2.263       .  S
C89          O95   1.270       .  A
C89          O97   1.273       .  A
C89         C183   1.472       .  S
O90         C338   1.274       .  A
O91        In328   2.271       .  S
O91          C98   1.280   1_556  A
C92          O99   1.286       .  A
C92          O93   1.285       .  A
C92         C225   1.421       .  S
C94          O96   1.280       .  A
C94         O100   1.275       .  A
C98         O330   1.274   1_554  A
C101        C176   1.665       .  S
C101        C102   1.583       .  S
C101        C107   1.546       .  S
C101        C105   1.559       .  S
C102        C103   1.400       .  D
C102        H109   1.083       .  S
C103        C173   1.511       .  S
C103        C104   1.526       .  S
C104        C108   1.533       .  S
C104        C106   1.527       .  S
C104        H110   1.111       .  S
C105        C106   1.379       .  D
C105        H111   1.075       .  S
C106        C123   1.510       .  S
C107        C108   1.373       .  D
C107        H112   1.084       .  S
In113       O115   2.272       .  S
In113       O124   2.057       .  S
In113       O118   2.096       .  S
In113       O120   2.194       .  S
In113       O121   2.275       .  S
In113       O122   2.235       .  S
In113       O125   2.301       .  S
In113       O596   2.285       .  S
C114        O120   1.270       .  A
C114        O122   1.273       .  A
O115        C603   1.273       .  A
O116       In593   2.291       .  S
O116        C123   1.279       .  A
C117        O124   1.280       .  A
C117        O118   1.287       .  A
C117        C212   1.424       .  S
C119        O121   1.279       .  A
C119        O125   1.273       .  A
C119        C158   1.513       .  S
C123        O595   1.271       .  A
C126        C151   1.661       .  S
C126        C127   1.543       .  S
C126        C132   1.583       .  S
C126        C130   1.560       .  S
C127        C128   1.370       .  D
C127        H134   1.085       .  S
C128        C129   1.535       .  S
C129        C133   1.529       .  S
C129        C131   1.528       .  S
C129        H135   1.111       .  S
C130        C131   1.380       .  D
C130        H136   1.075       .  S
C131        C144   1.511   1_545  S
C132        C133   1.398       .  D
C132        H137   1.084       .  S
C133        C194   1.514       .  S
In138       O140   2.301       .  S
In138       O141   2.271       .  S
In138       O143   2.032       .  S
In138       O145   2.191       .  S
In138       O147   2.223       .  S
In138       O629   2.096       .  S
In138       O626   2.290       .  S
In138       O630   2.268       .  S
C139        O145   1.269       .  A
C139        O147   1.274       .  A
O140        C148   1.274       .  A
O141        C148   1.280       .  A
C142        O143   1.285       .  A
C142        O629   1.287       .  A
C142        C215   1.422       .  S
C144        O146   1.280   1_565  A
C144        O150   1.274       .  A
O146       In618   2.288   1_545  S
C148        C178   1.515       .  S
O149       In618   2.086       .  S
O149        C622   1.284       .  A
O150       In618   2.268       .  S
C151        C152   1.545       .  S
C151        C157   1.582       .  S
C151        C155   1.557       .  S
C152        C153   1.372       .  D
C152        H159   1.085       .  S
C153        C154   1.535       .  S
C154        C158   1.529       .  S
C154        C156   1.529       .  S
C154        H160   1.111       .  S
C155        C156   1.379       .  D
C155        H161   1.076       .  S
C156        C169   1.511   1_545  S
C157        C158   1.398       .  D
C157        H162   1.084       .  S
In163       O168   2.130       .  S
In163       O170   2.184       .  S
In163       O172   2.238       .  S
In163       O405   2.302   1_554  S
In163       O406   2.280   1_554  S
In163       O894   2.021       .  S
In163       O651   2.294       .  S
In163       O655   2.278       .  S
C164        O170   1.269       .  A
C164        O172   1.273       .  A
O165       In403   2.302       .  S
O165        C173   1.271       .  A
O166       In403   2.277       .  S
O166        C173   1.280       .  A
C167        O168   1.286       .  A
C167        O894   1.274       .  A
C167        C442   1.425       .  S
C169        O171   1.279   1_565  A
C169        O175   1.271       .  A
O171       In643   2.293   1_545  S
O174       In883   2.019       .  S
O174        C887   1.270       .  A
O175       In643   2.273       .  S
C176        C177   1.586       .  S
C176        C182   1.545       .  S
C176        C180   1.562       .  S
C177        C178   1.398       .  D
C177        H184   1.084       .  S
C178        C179   1.526       .  S
C179        C183   1.532       .  S
C179        C181   1.525       .  S
C179        H185   1.111       .  S
C180        C181   1.381       .  D
C180        H186   1.075       .  S
C181        C198   1.508       .  S
C182        C183   1.372       .  D
C182        H187   1.084       .  S
In188       O190   2.265       .  S
In188       O199   2.104       .  S
In188       O193   2.025       .  S
In188       O195   2.190       .  S
In188       O197   2.229       .  S
In188       O200   2.297       .  S
In188       O671   2.288       .  S
In188       O436   2.274       .  S
C189        O195   1.269       .  A
C189        O197   1.275       .  A
O190        C678   1.274       .  A
O191       In668   2.285       .  S
O191        C198   1.280       .  A
C192        O199   1.288       .  A
C192        O193   1.284       .  A
C192        C205   1.424       .  S
C194        O196   1.280   1_554  A
C194        O440   1.274   1_554  A
O196       In428   2.276       .  S
C198        O670   1.274       .  A
O200        C434   1.274       .  A
C201        C202   1.411       .  A
C201        C206   1.384       .  A
C201       Br208   1.943       .  S
C202        C407   1.424       .  S
C202        C683   1.412       .  A
C203        C204   1.361       .  A
C203        C682   1.412   1_545  A
C203       Br450   1.954       .  S
C204        C205   1.410       .  A
C204       Br209   1.957       .  S
C205        C686   1.413   1_545  A
C206        C685   1.412       .  A
C206       Br207   1.944       .  S
Br210       C443   1.951       .  S
C211        C216   1.365       .  A
C211        C692   1.412       .  A
C211       Br218   1.951       .  S
C212        C213   1.409       .  A
C212        C691   1.409   1_545  A
C213        C214   1.378       .  A
C213       Br220   1.941       .  S
C214        C695   1.409       .  A
C214       Br219   1.945       .  S
C215        C216   1.407       .  A
C215        C694   1.409       .  A
C216       Br217   1.952       .  S
C221        C462   1.410       .  A
C221        C466   1.384   1_554  A
C221       Br228   1.941       .  S
C222       C1267   1.422   1_455  S
C222        C223   1.415       .  A
C222        C461   1.409       .  A
C223        C224   1.364       .  A
C223      Br1190   1.956   1_455  S
C224        C225   1.407       .  A
C224       Br229   1.955       .  S
C225        C226   1.411       .  A
C226        C461   1.382       .  A
C226       Br467   1.944       .  S
Br227       C466   1.944       .  S
Br230      C1183   1.949       .  S
C231        C232   1.408       .  A
C231        C236   1.378       .  A
C231       Br238   1.945       .  S
C232        C233   1.405       .  A
C233        C234   1.369       .  A
C233       Br240   1.950       .  S
C234        C235   1.413       .  A
C234      Br1199   1.951   1_455  S
C235        C965   1.424   1_455  S
C235        C236   1.409       .  A
C236       Br237   1.941       .  S
Br239      C1194   1.942       .  S
In241       O243   2.296       .  S
In241       O244   2.270       .  S
In241       O252   2.102       .  S
In241       O246   2.029       .  S
In241       O248   2.186       .  S
In241       O249   2.288       .  S
In241       O250   2.232       .  S
In241       O253   2.265       .  S
C242        O248   1.269       .  A
C242        O250   1.274       .  A
C242        C348   1.473       .  S
O243        C251   1.274       .  A
O244        C251   1.280       .  A
C245        O252   1.288       .  A
C245        O246   1.284       .  A
C245       C1435   1.422       .  S
C247        O249   1.280       .  A
C247        O253   1.274       .  A
C247        C259   1.508       .  S
C251        C293   1.513       .  S
C254        C316   1.662       .  S
C254       C1215   1.545       .  S
C254       C1220   1.583       .  S
C254       C1218   1.556       .  S
C255       C1214   1.545       .  S
C255        C256   1.371       .  D
C255       H1222   1.084       .  S
C256        C354   1.473       .  S
C256        C257   1.533       .  S
C257        C261   1.524       .  S
C257        C259   1.525       .  S
C257        H263   1.111       .  S
C258       C1214   1.562       .  S
C258        C259   1.382       .  D
C258       H1224   1.078       .  S
C260       C1214   1.586       .  S
C260        C261   1.399       .  D
C260       H1225   1.084       .  S
C261        C309   1.515       .  S
H262       C1215   1.085       .  S
H264       C1218   1.077       .  S
H265       C1220   1.082       .  S
C266        C291   1.663       .  S
C266        C267   1.582       .  S
C266        C272   1.545       .  S
C266        C270   1.563       .  S
C267        C268   1.396       .  D
C267        H274   1.084       .  S
C268        C338   1.511       .  S
C268        C269   1.529       .  S
C269        C273   1.534       .  S
C269        C271   1.529       .  S
C269        H275   1.111       .  S
C270        C271   1.382       .  D
C270        H276   1.073       .  S
C271        C288   1.513       .  S
C272        C273   1.371       .  D
C272        H277   1.084       .  S
C273        C379   1.478       .  S
In278       O280   2.276       .  S
In278       O281   2.292       .  S
In278       O289   2.084       .  S
In278       O283   2.040       .  S
In278       O285   2.187       .  S
In278       O286   2.275       .  S
In278       O287   2.231       .  S
In278       O290   2.302       .  S
C279        O285   1.270       .  A
C279        O287   1.274       .  A
C279        C368   1.473       .  S
O280        C288   1.275       .  A
O281        C288   1.280       .  A
C282        O289   1.286       .  A
C282        O283   1.286       .  A
C282        C472   1.421       .  S
C284        O286   1.280       .  A
C284        O290   1.273       .  A
C284        C323   1.515       .  S
C291       C1252   1.582       .  S
C291       C1257   1.546       .  S
C291       C1255   1.556       .  S
C292       C1251   1.586       .  S
C292        C293   1.398       .  D
C292       H1259   1.084       .  S
C293        C294   1.525       .  S
C294        C298   1.532       .  S
C294        C296   1.525       .  S
C294        H300   1.111       .  S
C295       C1251   1.562       .  S
C295        C296   1.380       .  D
C295       H1261   1.078       .  S
C296        C313   1.508       .  S
C297       C1251   1.544       .  S
C297        C298   1.370       .  D
C297       H1262   1.084       .  S
C298        C404   1.472       .  S
H299       C1252   1.084       .  S
H301       C1255   1.077       .  S
H302       C1257   1.084       .  S
In303       O305   2.269       .  S
In303       O306   2.283       .  S
In303       O308   2.071       .  S
In303       O310   2.190       .  S
In303       O312   2.235       .  S
C304        O310   1.270       .  A
C304        O312   1.273       .  A
C304        C393   1.475       .  S
O305        C313   1.274       .  A
O306        C313   1.280       .  A
C307        O308   1.287       .  A
C307       C1182   1.424       .  S
C309        O311   1.281       .  A
C309        O315   1.273       .  A
C316        C317   1.542       .  S
C316        C322   1.584       .  S
C316        C320   1.562       .  S
C317        C318   1.370       .  D
C317        H324   1.085       .  S
C318        C429   1.475       .  S
C318        C319   1.536       .  S
C319        C323   1.528       .  S
C319        C321   1.528       .  S
C319        H325   1.111       .  S
C320        C321   1.381       .  D
C320        H326   1.079       .  S
C321        C334   1.512       .  S
C322        C323   1.397       .  D
C322        H327   1.084       .  S
In328       O330   2.301       .  S
In328       O339   2.093       .  S
In328       O333   2.033       .  S
In328       O335   2.193       .  S
In328       O336   2.291       .  S
In328       O337   2.230       .  S
In328       O340   2.272       .  S
C329        O335   1.270       .  A
C329        O337   1.274       .  A
C329        C423   1.475       .  S
O331        C338   1.279       .  A
C332        O339   1.286       .  A
C332        O333   1.286       .  A
C332        C465   1.422       .  S
C334        O336   1.280       .  A
C334        O340   1.275       .  A
C341        C416   1.664       .  S
C341        C342   1.583       .  S
C341        C347   1.543       .  S
C341        C345   1.559       .  S
C342        C343   1.400       .  D
C342        H349   1.083       .  S
C343        C413   1.512       .  S
C343        C344   1.527       .  S
C344        C348   1.535       .  S
C344        C346   1.528       .  S
C344        H350   1.111       .  S
C345        C346   1.381       .  D
C345        H351   1.075       .  S
C346        C363   1.512       .  S
C347        C348   1.370       .  D
C347        H352   1.084       .  S
In353       O355   2.270       .  S
In353       O836   2.289       .  S
In353       O364   2.037       .  S
In353       O358   2.122       .  S
In353       O360   2.187       .  S
In353       O361   2.272       .  S
In353       O362   2.236       .  S
In353       O365   2.299       .  S
C354        O360   1.269       .  A
C354        O362   1.273       .  A
O355        C843   1.271       .  A
O356       In833   2.295       .  S
O356        C363   1.280       .  A
C357        O364   1.276       .  A
C357        O358   1.286       .  A
C357        C452   1.425       .  S
C359        O361   1.279       .  A
C359        O365   1.271       .  A
C359        C398   1.509       .  S
C363        O835   1.272       .  A
C366        C391   1.665       .  S
C366        C367   1.544       .  S
C366        C372   1.586       .  S
C366        C370   1.561       .  S
C367        C368   1.371       .  D
C367        H374   1.085       .  S
C368        C369   1.534       .  S
C369        C373   1.527       .  S
C369        C371   1.527       .  S
C369        H375   1.111       .  S
C370        C371   1.379       .  D
C370        H376   1.074       .  S
C371        C384   1.510   1_545  S
C372        C373   1.399       .  D
C372        H377   1.084       .  S
C373        C434   1.515       .  S
In378       O380   2.302       .  S
In378       O381   2.271       .  S
In378       O869   2.093       .  S
In378       O383   2.050       .  S
In378       O385   2.200       .  S
In378       O866   2.289       .  S
In378       O387   2.236       .  S
In378       O870   2.272       .  S
C379        O385   1.270       .  A
C379        O387   1.274       .  A
O380        C388   1.274       .  A
O381        C388   1.280       .  A
C382        O869   1.286       .  A
C382        O383   1.287       .  A
C382        C455   1.424       .  S
C384        O386   1.280   1_565  A
C384        O390   1.274       .  A
O386       In858   2.285   1_545  S
C388        C418   1.515       .  S
O389       In858   2.099       .  S
O389        C862   1.286       .  A
O390       In858   2.264       .  S
C391        C392   1.547       .  S
C391        C397   1.582       .  S
C391        C395   1.559       .  S
C392        C393   1.374       .  D
C392        H399   1.085       .  S
C393        C394   1.532       .  S
C394        C398   1.525       .  S
C394        C396   1.527       .  S
C394        H400   1.111       .  S
C395        C396   1.378       .  D
C395        H401   1.074       .  S
C396        C409   1.511   1_545  S
C397        C398   1.399       .  D
C397        H402   1.083       .  S
In403       O654   2.030       .  S
In403       O408   2.118       .  S
In403       O410   2.181       .  S
In403       O891   2.290       .  S
In403       O412   2.236       .  S
In403       O895   2.272       .  S
C404        O410   1.268       .  A
C404        O412   1.273       .  A
O405        C413   1.271       .  A
O406        C413   1.279       .  A
C407        O654   1.275       .  A
C407        O408   1.285       .  A
C409        O411   1.278       .  A
C409        O415   1.271       .  A
O411       In883   2.292       .  S
O414       In643   2.035       .  S
O414        C647   1.275       .  A
O415       In883   2.277       .  S
C416        C417   1.586       .  S
C416        C422   1.544       .  S
C416        C420   1.561       .  S
C417        C418   1.397       .  D
C417        H424   1.084       .  S
C418        C419   1.527       .  S
C419        C423   1.534       .  S
C419        C421   1.528       .  S
C419        H425   1.111       .  S
C420        C421   1.380       .  D
C420        H426   1.074       .  S
C421        C438   1.510       .  S
C422        C423   1.371       .  D
C422        H427   1.085       .  S
In428       O430   2.269       .  S
In428       O911   2.286       .  S
In428       O439   2.093       .  S
In428       O433   2.037       .  S
In428       O435   2.194       .  S
In428       O437   2.227       .  S
In428       O440   2.296       .  S
C429        O435   1.270       .  A
C429        O437   1.274       .  A
O430        C918   1.274       .  A
O431       In908   2.285       .  S
O431        C438   1.280       .  A
C432        O439   1.286       .  A
C432        O433   1.286       .  A
C432        C445   1.422       .  S
C434        O436   1.280       .  A
C438        O910   1.275       .  A
C441        C442   1.408       .  A
C441        C446   1.385   1_554  A
C441       Br448   1.940       .  S
C442        C923   1.411   1_554  A
C443        C922   1.410   1_546  A
C443        C444   1.363       .  A
C444        C445   1.409       .  A
C444       Br449   1.952       .  S
C445        C926   1.413   1_545  A
C446        C925   1.412       .  A
C446       Br447   1.942       .  S
C451        C932   1.410       .  A
C451        C456   1.366       .  A
C451       Br458   1.948       .  S
C452        C931   1.409   1_545  A
C452        C453   1.407       .  A
C453        C454   1.382       .  A
C453       Br460   1.937       .  S
C454        C935   1.411       .  A
C454       Br459   1.944       .  S
C455        C934   1.409       .  A
C455        C456   1.406       .  A
C456       Br457   1.948       .  S
C461       Br468   1.942       .  S
C462       C1027   1.422   1_455  S
C462        C463   1.414   1_554  A
C463        C464   1.363       .  A
C463      Br1430   1.956   1_455  S
C464        C465   1.406       .  A
C464       Br469   1.953       .  S
C465        C466   1.411       .  A
Br470      C1423   1.949       .  S
C471        C472   1.409       .  A
C471        C476   1.380       .  A
C471       Br478   1.944       .  S
C472        C473   1.407       .  A
C473        C474   1.365       .  A
C473       Br480   1.951       .  S
C474        C475   1.409       .  A
C474      Br1439   1.948   1_455  S
C475       C1205   1.424   1_455  S
C475        C476   1.408       .  A
C476       Br477   1.938       .  S
Br479      C1434   1.940       .  S
In481       O483   2.302       .  S
In481       O484   2.270       .  S
In481       O492   2.063       .  S
In481       O486   2.071       .  S
In481       O488   2.190       .  S
In481       O489   2.289       .  S
In481       O490   2.234       .  S
In481       O493   2.272       .  S
C482        O488   1.270       .  A
C482        O490   1.273       .  A
C482        C588   1.474       .  S
O483        C491   1.273       .  A
O484        C491   1.280       .  A
C485        O492   1.281       .  A
C485        O486   1.285       .  A
C485       C1675   1.422       .  S
C487        O489   1.280       .  A
C487        O493   1.273       .  A
C487        C499   1.511       .  S
C491        C533   1.512       .  S
C494        C556   1.664       .  S
C494       C1455   1.546       .  S
C494       C1460   1.585       .  S
C494       C1458   1.561       .  S
C495       C1454   1.548       .  S
C495        C496   1.374       .  D
C495       H1462   1.084       .  S
C496        C594   1.478       .  S
C496        C497   1.533       .  S
C497        C501   1.525       .  S
C497        C499   1.526       .  S
C497        H503   1.111       .  S
C498       C1454   1.562       .  S
C498        C499   1.382       .  D
C498       H1464   1.077       .  S
C500       C1454   1.584       .  S
C500        C501   1.397       .  D
C500       H1465   1.084       .  S
C501        C549   1.511       .  S
H502       C1455   1.085       .  S
H504       C1458   1.076       .  S
H505       C1460   1.084       .  S
C506        C531   1.664       .  S
C506        C507   1.581       .  S
C506        C512   1.545       .  S
C506        C510   1.560       .  S
C507        C508   1.399       .  D
C507        H514   1.084       .  S
C508        C578   1.510       .  S
C508        C509   1.528       .  S
C509        C513   1.534       .  S
C509        C511   1.528       .  S
C509        H515   1.111       .  S
C510        C511   1.379       .  D
C510        H516   1.072       .  S
C511        C528   1.512       .  S
C512        C513   1.372       .  D
C512        H517   1.084       .  S
C513        C619   1.475       .  S
In518       O520   2.281       .  S
In518       O521   2.295       .  S
In518       O529   2.016       .  S
In518       O523   2.152       .  S
In518       O525   2.197       .  S
In518       O526   2.284       .  S
In518       O527   2.240       .  S
In518       O530   2.301       .  S
C519        O525   1.269       .  A
C519        O527   1.272       .  A
C519        C608   1.477       .  S
O520        C528   1.271       .  A
O521        C528   1.278       .  A
C522        O529   1.270       .  A
C522        O523   1.286       .  A
C522        C712   1.427       .  S
C524        O526   1.279       .  A
C524        O530   1.271       .  A
C524        C563   1.512       .  S
C531       C1492   1.586       .  S
C531       C1497   1.547       .  S
C531       C1495   1.561       .  S
C532       C1491   1.582       .  S
C532        C533   1.398       .  D
C532       H1499   1.083       .  S
C533        C534   1.527       .  S
C534        C538   1.531       .  S
C534        C536   1.528       .  S
C534        H540   1.111       .  S
C535       C1491   1.562       .  S
C535        C536   1.381       .  D
C535       H1501   1.076       .  S
C536        C553   1.511       .  S
C537       C1491   1.546       .  S
C537        C538   1.373       .  D
C537       H1502   1.085       .  S
C538        C644   1.475       .  S
H539       C1492   1.084       .  S
H541       C1495   1.077       .  S
H542       C1497   1.085       .  S
In543       O545   2.273       .  S
In543       O546   2.289       .  S
In543       O794   2.067       .  S
In543       O548   2.075       .  S
In543       O550   2.193       .  S
In543       O791   2.274   1_554  S
In543       O552   2.236       .  S
In543       O795   2.304   1_554  S
C544        O550   1.270       .  A
C544        O552   1.273       .  A
C544        C633   1.476       .  S
O545        C553   1.273       .  A
O546        C553   1.280       .  A
C547        O794   1.282       .  A
C547        O548   1.286       .  A
C547       C1902   1.423       .  S
C549        O551   1.280       .  A
C549        O555   1.272       .  A
O551       In783   2.270       .  S
O554       In783   2.060       .  S
O554        C787   1.280       .  A
O555       In783   2.298       .  S
C556        C557   1.545       .  S
C556        C562   1.579       .  S
C556        C560   1.559       .  S
C557        C558   1.372       .  D
C557        H564   1.084       .  S
C558        C669   1.477       .  S
C558        C559   1.536       .  S
C559        C563   1.531       .  S
C559        C561   1.532       .  S
C559        H565   1.111       .  S
C560        C561   1.381       .  D
C560        H566   1.074       .  S
C561        C574   1.517       .  S
C562        C563   1.398       .  D
C562        H567   1.084       .  S
In568       O570   2.308       .  S
In568       O811   2.280       .  S
In568       O579   2.018       .  S
In568       O573   2.129       .  S
In568       O575   2.192       .  S
In568       O576   2.304       .  S
In568       O577   2.236       .  S
In568       O580   2.285       .  S
C569        O575   1.269       .  A
C569        O577   1.272       .  A
C569        C663   1.474       .  S
O570        C818   1.271       .  A
O571       In808   2.286       .  S
O571        C578   1.278   1_556  A
C572        O579   1.273       .  A
C572        O573   1.286       .  A
C572        C705   1.422       .  S
C574        O576   1.279       .  A
C574        O580   1.271       .  A
C578        O810   1.269   1_554  A
C581        C656   1.663       .  S
C581        C582   1.579       .  S
C581        C587   1.548       .  S
C581        C585   1.559       .  S
C582        C583   1.396       .  D
C582        H589   1.083       .  S
C583        C653   1.505       .  S
C583        C584   1.524       .  S
C584        C588   1.531       .  S
C584        C586   1.527       .  S
C584        H590   1.111       .  S
C585        C586   1.380       .  D
C585        H591   1.078   1_565  S
C586        C603   1.509   1_565  S
C587        C588   1.373       .  D
C587        H592   1.084       .  S
In593       O595   2.274       .  S
In593       O604   2.037       .  S
In593       O598   2.134       .  S
In593       O600   2.199       .  S
In593       O601   2.277       .  S
In593       O602   2.243       .  S
In593       O605   2.301       .  S
C594        O600   1.270       .  A
C594        O602   1.272       .  A
O596        C603   1.279       .  A
C597        O604   1.274       .  A
C597        O598   1.286       .  A
C597        C692   1.426       .  S
C599        O601   1.279       .  A
C599        O605   1.272       .  A
C599        C638   1.512       .  S
C606        C631   1.664       .  S
C606        C607   1.548       .  S
C606        C612   1.583       .  S
C606        C610   1.561       .  S
C607        C608   1.373       .  D
C607        H614   1.085       .  S
C608        C609   1.532       .  S
C609        C613   1.527       .  S
C609        C611   1.527       .  S
C609        H615   1.111       .  S
C610        C611   1.380       .  D
C610        H616   1.076       .  S
C611        C624   1.510       .  S
C612        C613   1.396       .  D
C612        H617   1.084       .  S
C613        C674   1.512       .  S
In618       O620   2.295       .  S
In618       O621   2.267       .  S
In618       O623   2.057       .  S
In618       O625   2.193       .  S
In618       O627   2.232       .  S
C619        O625   1.270       .  A
C619        O627   1.274       .  A
O620        C628   1.273       .  A
O621        C628   1.280       .  A
C622        O623   1.286       .  A
C622        C695   1.423   1_565  S
C624        O626   1.280       .  A
C624        O630   1.274       .  A
C628        C658   1.510       .  S
C631        C632   1.546       .  S
C631        C637   1.581       .  S
C631        C635   1.560       .  S
C632        C633   1.373       .  D
C632        H639   1.085       .  S
C633        C634   1.533       .  S
C634        C638   1.528       .  S
C634        C636   1.528       .  S
C634        H640   1.111       .  S
C635        C636   1.380       .  D
C635        H641   1.078       .  S
C636        C649   1.512       .  S
C637        C638   1.398       .  D
C637        H642   1.084       .  S
In643       O885   2.302   1_554  S
In643       O886   2.274   1_554  S
In643       O648   2.122       .  S
In643       O650   2.196       .  S
In643       O652   2.232       .  S
C644        O650   1.270       .  A
C644        O652   1.272       .  A
O645       In883   2.294       .  S
O645        C653   1.271       .  A
O646       In883   2.269       .  S
O646        C653   1.278       .  A
C647        O648   1.286       .  A
C647        C922   1.423       .  S
C649        O651   1.279       .  A
C649        O655   1.271       .  A
C656        C657   1.583       .  S
C656        C662   1.547       .  S
C656        C660   1.563       .  S
C657        C658   1.396       .  D
C657        H664   1.084       .  S
C658        C659   1.524       .  S
C659        C663   1.533       .  S
C659        C661   1.525       .  S
C659        H665   1.111       .  S
C660        C661   1.381       .  D
C660        H666   1.076   1_565  S
C661        C678   1.509   1_565  S
C662        C663   1.371       .  D
C662        H667   1.084       .  S
In668       O670   2.262       .  S
In668       O679   2.110       .  S
In668       O673   2.036       .  S
In668       O675   2.194       .  S
In668       O916   2.267       .  S
In668       O677   2.235       .  S
In668       O680   2.295       .  S
C669        O675   1.269       .  A
C669        O677   1.274       .  A
O671        C678   1.280       .  A
C672        O679   1.286       .  A
C672        O673   1.284       .  A
C672        C685   1.426       .  S
C674        O676   1.280   1_554  A
C674        O920   1.274   1_554  A
O676       In908   2.267       .  S
O680        C914   1.273       .  A
C681        C682   1.406       .  A
C681        C686   1.386       .  A
C681       Br688   1.937       .  S
C682        C887   1.427       .  S
C683        C684   1.365       .  A
C683       Br930   1.956       .  S
C684        C685   1.410       .  A
C684       Br689   1.954       .  S
C686       Br687   1.943       .  S
Br690       C923   1.954       .  S
C691        C696   1.368       .  A
C691       Br698   1.948       .  S
C692        C693   1.407       .  A
C693        C694   1.382       .  A
C693       Br700   1.936       .  S
C694       Br699   1.942       .  S
C695        C696   1.406   1_545  A
C696       Br697   1.946       .  S
C701        C942   1.413       .  A
C701        C946   1.361       .  A
C701       Br708   1.961   1_556  S
C702       C1747   1.426   1_455  S
C702        C941   1.411       .  A
C702        C703   1.412       .  A
C703        C704   1.384       .  A
C703      Br1670   1.939   1_455  S
C704        C705   1.404       .  A
C704       Br709   1.939       .  S
C705        C706   1.410       .  A
C706        C941   1.364       .  A
C706       Br947   1.954       .  S
Br707       C946   1.963       .  S
Br710      C1663   1.948       .  S
C711        C712   1.412       .  A
C711        C716   1.363       .  A
C711       Br718   1.958       .  S
C712        C713   1.406       .  A
C713        C714   1.386       .  A
C713       Br720   1.937       .  S
C714        C715   1.412       .  A
C714      Br1679   1.940   1_455  S
C715       C1445   1.426   1_455  S
C715        C716   1.412       .  A
C716       Br717   1.958       .  S
Br719      C1674   1.951       .  S
In721       O723   2.297       .  S
In721       O724   2.265       .  S
In721       O732   2.103       .  S
In721       O726   2.026       .  S
In721       O728   2.189       .  S
In721       O729   2.290       .  S
In721       O730   2.234       .  S
In721       O733   2.272       .  S
C722        O728   1.270       .  A
C722        O730   1.274       .  A
C722        C828   1.474       .  S
O723        C731   1.274       .  A
O724        C731   1.280       .  A
C725        O732   1.287       .  A
C725        O726   1.284       .  A
C725       C1915   1.423       .  S
C727        O729   1.280       .  A
C727        O733   1.275       .  A
C727        C739   1.512       .  S
C731        C773   1.511       .  S
C734        C796   1.664       .  S
C734       C1695   1.546       .  S
C734       C1700   1.587       .  S
C734       C1698   1.562       .  S
C735       C1694   1.548       .  S
C735        C736   1.373       .  D
C735       H1702   1.084       .  S
C736        C834   1.480       .  S
C736        C737   1.535       .  S
C737        C741   1.526       .  S
C737        C739   1.528       .  S
C737        H743   1.111       .  S
C738       C1694   1.563       .  S
C738        C739   1.381       .  D
C738       H1704   1.076       .  S
C740       C1694   1.584       .  S
C740        C741   1.398       .  D
C740       H1705   1.084       .  S
C741        C789   1.514       .  S
H742       C1695   1.085       .  S
H744       C1698   1.076       .  S
H745       C1700   1.084       .  S
C746        C771   1.663       .  S
C746        C747   1.583       .  S
C746        C752   1.544       .  S
C746        C750   1.560       .  S
C747        C748   1.399       .  D
C747        H754   1.084       .  S
C748        C818   1.512       .  S
C748        C749   1.527       .  S
C749        C753   1.533       .  S
C749        C751   1.528       .  S
C749        H755   1.111       .  S
C750        C751   1.380       .  D
C750        H756   1.074       .  S
C751        C768   1.512       .  S
C752        C753   1.371       .  D
C752        H757   1.084       .  S
C753        C859   1.472       .  S
In758       O760   2.278       .  S
In758       O761   2.294       .  S
In758       O769   2.027       .  S
In758       O763   2.131       .  S
In758       O765   2.194       .  S
In758       O766   2.282       .  S
In758       O767   2.242       .  S
In758       O770   2.303       .  S
C759        O765   1.269       .  A
C759        O767   1.273       .  A
C759        C848   1.477       .  S
O760        C768   1.271       .  A
O761        C768   1.279       .  A
C762        O769   1.273       .  A
C762        O763   1.286       .  A
C762        C952   1.425       .  S
C764        O766   1.279       .  A
C764        O770   1.271       .  A
C764        C803   1.512       .  S
C771       C1732   1.585       .  S
C771       C1737   1.546       .  S
C771       C1735   1.560       .  S
C772       C1731   1.584       .  S
C772        C773   1.398       .  D
C772       H1739   1.084       .  S
C773        C774   1.526       .  S
C774        C778   1.528       .  S
C774        C776   1.524       .  S
C774        H780   1.111       .  S
C775       C1731   1.561       .  S
C775        C776   1.379       .  D
C775       H1741   1.079       .  S
C776        C793   1.507       .  S
C777       C1731   1.548       .  S
C777        C778   1.373       .  D
C777       H1742   1.085       .  S
C778        C884   1.473       .  S
H779       C1732   1.084       .  S
H781       C1735   1.071       .  S
H782       C1737   1.085       .  S
In783       O785   2.269       .  S
In783       O786   2.282       .  S
In783       O788   2.086       .  S
In783       O790   2.184       .  S
In783       O792   2.233       .  S
C784        O790   1.269       .  A
C784        O792   1.273       .  A
C784        C873   1.472       .  S
O785        C793   1.273       .  A
O786        C793   1.280       .  A
C787        O788   1.286       .  A
C787       C1662   1.423       .  S
C789        O791   1.280       .  A
C789        O795   1.273       .  A
C796        C797   1.545       .  S
C796        C802   1.580       .  S
C796        C800   1.559       .  S
C797        C798   1.372       .  D
C797        H804   1.085       .  S
C798        C909   1.475       .  S
C798        C799   1.535       .  S
C799        C803   1.531       .  S
C799        C801   1.530       .  S
C799        H805   1.111       .  S
C800        C801   1.379       .  D
C800        H806   1.074       .  S
C801        C814   1.515       .  S
C802        C803   1.399       .  D
C802        H807   1.083       .  S
In808       O810   2.302       .  S
In808       O819   1.987       .  S
In808       O813   2.185       .  S
In808       O815   2.189       .  S
In808       O816   2.306       .  S
In808       O817   2.233       .  S
In808       O820   2.283       .  S
C809        O815   1.268       .  A
C809        O817   1.271       .  A
C809        C903   1.470       .  S
O811        C818   1.279       .  A
C812        O819   1.263       .  A
C812        O813   1.284       .  A
C812        C945   1.428       .  S
C814        O816   1.278       .  A
C814        O820   1.269       .  A
C821        C896   1.662       .  S
C821        C822   1.581       .  S
C821        C827   1.547       .  S
C821        C825   1.557       .  S
C822        C823   1.397       .  D
C822        H829   1.083       .  S
C823        C893   1.509       .  S
C823        C824   1.527       .  S
C824        C828   1.533       .  S
C824        C826   1.527       .  S
C824        H830   1.111       .  S
C825        C826   1.379       .  D
C825        H831   1.074   1_565  S
C826        C843   1.509   1_565  S
C827        C828   1.372       .  D
C827        H832   1.084       .  S
In833       O835   2.272       .  S
In833       O844   2.048       .  S
In833       O838   2.121       .  S
In833       O840   2.200       .  S
In833       O841   2.276       .  S
In833       O842   2.246       .  S
In833       O845   2.301       .  S
C834        O840   1.269       .  A
C834        O842   1.273       .  A
O836        C843   1.279       .  A
C837        O844   1.277       .  A
C837        O838   1.286       .  A
C837        C932   1.426       .  S
C839        O841   1.280       .  A
C839        O845   1.272       .  A
C839        C878   1.512       .  S
C846        C871   1.665       .  S
C846        C847   1.547       .  S
C846        C852   1.585       .  S
C846        C850   1.562       .  S
C847        C848   1.372       .  D
C847        H854   1.085       .  S
C848        C849   1.533       .  S
C849        C853   1.525       .  S
C849        C851   1.527       .  S
C849        H855   1.111       .  S
C850        C851   1.381       .  D
C850        H856   1.076       .  S
C851        C864   1.511       .  S
C852        C853   1.398       .  D
C852        H857   1.084       .  S
C853        C914   1.512       .  S
In858       O860   2.293       .  S
In858       O861   2.262       .  S
In858       O863   2.042       .  S
In858       O865   2.186       .  S
In858       O867   2.228       .  S
C859        O865   1.270       .  A
C859        O867   1.274       .  A
O860        C868   1.273       .  A
O861        C868   1.280       .  A
C862        O863   1.285       .  A
C862        C935   1.423   1_565  S
C864        O866   1.280       .  A
C864        O870   1.274       .  A
C868        C898   1.509       .  S
C871        C872   1.545       .  S
C871        C877   1.583       .  S
C871        C875   1.561       .  S
C872        C873   1.372       .  D
C872        H879   1.085       .  S
C873        C874   1.532       .  S
C874        C878   1.526       .  S
C874        C876   1.525       .  S
C874        H880   1.111       .  S
C875        C876   1.381       .  D
C875        H881   1.077       .  S
C876        C889   1.510       .  S
C877        C878   1.399       .  D
C877        H882   1.084       .  S
In883       O888   2.155       .  S
In883       O890   2.190       .  S
In883       O892   2.235       .  S
C884        O890   1.270       .  A
C884        O892   1.271       .  A
O885        C893   1.272       .  A
O886        C893   1.279       .  A
C887        O888   1.286       .  A
C889        O891   1.279       .  A
C889        O895   1.271       .  A
C896        C897   1.583       .  S
C896        C902   1.544       .  S
C896        C900   1.564       .  S
C897        C898   1.396       .  D
C897        H904   1.084       .  S
C898        C899   1.525       .  S
C899        C903   1.531       .  S
C899        C901   1.525       .  S
C899        H905   1.111       .  S
C900        C901   1.381       .  D
C900        H906   1.072   1_565  S
C901        C918   1.510   1_565  S
C902        C903   1.369       .  D
C902        H907   1.084       .  S
In908       O910   2.266       .  S
In908       O919   2.104       .  S
In908       O913   2.037       .  S
In908       O915   2.194       .  S
In908       O917   2.231       .  S
In908       O920   2.297       .  S
C909        O915   1.270       .  A
C909        O917   1.274       .  A
O911        C918   1.280       .  A
C912        O919   1.286       .  A
C912        O913   1.285       .  A
C912        C925   1.425       .  S
C914        O916   1.280       .  A
C921        C922   1.408       .  A
C921        C926   1.383   1_554  A
C921       Br928   1.939       .  S
C923        C924   1.363       .  A
C924        C925   1.408       .  A
C924       Br929   1.953       .  S
C926       Br927   1.945       .  S
C931        C936   1.364       .  A
C931       Br938   1.951       .  S
C932        C933   1.408       .  A
C933        C934   1.382       .  A
C933       Br940   1.938       .  S
C934       Br939   1.943       .  S
C935        C936   1.408   1_545  A
C936       Br937   1.951       .  S
C941       Br948   1.954       .  S
C942       C1507   1.430   1_456  S
C942        C943   1.413       .  A
C943        C944   1.391       .  A
C943      Br1910   1.936   1_455  S
C944        C945   1.405       .  A
C944       Br949   1.935       .  S
C945        C946   1.415       .  A
Br950      C1903   1.948       .  S
C951        C952   1.413       .  A
C951        C956   1.365       .  A
C951       Br958   1.957       .  S
C952        C953   1.408       .  A
C953        C954   1.383       .  A
C953       Br960   1.940       .  S
C954        C955   1.410       .  A
C954      Br1919   1.942   1_455  S
C955       C1685   1.424   1_455  S
C955        C956   1.411       .  A
C956       Br957   1.956       .  S
Br959      C1914   1.944       .  S
In961       O963   2.304       .  S
In961       O964   2.281       .  S
In961       O972   2.042       .  S
In961       O966   2.108       .  S
In961       O968   2.200       .  S
In961       O969   2.291       .  S
In961       O970   2.234       .  S
In961       O973   2.274       .  S
C962        O968   1.270       .  A
C962        O970   1.272       .  A
C962       C1068   1.477       .  S
O963        C971   1.273       .  A
O964        C971   1.279       .  A
C965        O972   1.277       .  A
C965        O966   1.287       .  A
C967        O969   1.279       .  A
C967        O973   1.272       .  A
C967        C979   1.510       .  S
C971       C1013   1.514       .  S
C974       C1036   1.666       .  S
C975        C976   1.371   1_455  D
C976       C1074   1.472       .  S
C976        C977   1.533       .  S
C977        C981   1.526       .  S
C977        C979   1.529       .  S
C977        H983   1.111       .  S
C978        C979   1.379   1_455  D
C980        C981   1.398   1_455  D
C981       C1029   1.511       .  S
C986       C1011   1.663       .  S
C986        C987   1.583       .  S
C986        C992   1.544       .  S
C986        C990   1.560       .  S
C987        C988   1.399       .  D
C987        H994   1.083       .  S
C988       C1058   1.512       .  S
C988        C989   1.526       .  S
C989        C993   1.532       .  S
C989        C991   1.526       .  S
C989        H995   1.111       .  S
C990        C991   1.381       .  D
C990        H996   1.073       .  S
C991       C1008   1.509       .  S
C992        C993   1.371       .  D
C992        H997   1.084       .  S
C993       C1099   1.472       .  S
In998      O1000   2.272       .  S
In998      O1001   2.290       .  S
In998      O1009   2.035       .  S
In998      O1003   2.121       .  S
In998      O1005   2.193       .  S
In998      O1006   2.280       .  S
In998      O1007   2.237       .  S
In998      O1010   2.304       .  S
C999       O1005   1.269       .  A
C999       O1007   1.273       .  A
C999       C1088   1.475       .  S
O1000      C1008   1.271       .  A
O1001      C1008   1.279       .  A
C1002      O1009   1.276       .  A
C1002      O1003   1.286       .  A
C1002      C1192   1.424       .  S
C1004      O1006   1.279       .  A
C1004      O1010   1.272       .  A
C1004      C1043   1.514       .  S
C1012      C1013   1.398   1_455  D
C1013      C1014   1.531       .  S
C1014      C1018   1.537       .  S
C1014      C1016   1.530       .  S
C1014      H1020   1.111       .  S
C1015      C1016   1.379   1_455  D
C1016      C1033   1.510       .  S
C1017      C1018   1.370   1_455  D
C1018      C1124   1.474       .  S
In1023     O1025   2.268       .  S
In1023     O1026   2.299       .  S
In1023     O1274   2.018       .  S
In1023     O1028   2.137       .  S
In1023     O1030   2.187       .  S
In1023     O1271   2.279   1_554  S
In1023     O1032   2.237       .  S
In1023     O1275   2.308   1_554  S
C1024      O1030   1.269       .  A
C1024      O1032   1.273       .  A
C1024      C1113   1.474       .  S
O1025      C1033   1.270       .  A
O1026      C1033   1.279       .  A
C1027      O1274   1.272       .  A
C1027      O1028   1.285       .  A
C1029      O1031   1.279       .  A
C1029      O1035   1.272       .  A
O1031     In1263   2.276       .  S
O1034     In1263   2.017       .  S
O1034      C1267   1.272       .  A
O1035     In1263   2.305       .  S
C1036      C1037   1.544       .  S
C1036      C1042   1.583       .  S
C1036      C1040   1.560       .  S
C1037      C1038   1.371       .  D
C1037      H1044   1.084       .  S
C1038      C1149   1.475       .  S
C1038      C1039   1.536       .  S
C1039      C1043   1.527       .  S
C1039      C1041   1.529       .  S
C1039      H1045   1.111       .  S
C1040      C1041   1.382       .  D
C1040      H1046   1.076       .  S
C1041      C1054   1.513       .  S
C1042      C1043   1.399       .  D
C1042      H1047   1.083       .  S
In1048     O1050   2.298       .  S
In1048     O1291   2.274       .  S
In1048     O1059   2.056       .  S
In1048     O1053   2.097       .  S
In1048     O1055   2.193       .  S
In1048     O1056   2.295       .  S
In1048     O1057   2.241       .  S
In1048     O1060   2.273       .  S
C1049      O1055   1.269       .  A
C1049      O1057   1.273       .  A
C1049      C1143   1.477       .  S
O1050      C1298   1.272       .  A
O1051     In1288   2.274       .  S
O1051      C1058   1.280   1_556  A
C1052      O1059   1.279       .  A
C1052      O1053   1.286       .  A
C1052      C1185   1.424       .  S
C1054      O1056   1.280       .  A
C1054      O1060   1.272       .  A
C1058      O1290   1.272   1_554  A
C1061      C1136   1.666       .  S
C1061      C1062   1.584       .  S
C1061      C1067   1.547       .  S
C1061      C1065   1.560       .  S
C1062      C1063   1.397       .  D
C1062      H1069   1.084       .  S
C1063      C1133   1.512       .  S
C1063      C1064   1.525       .  S
C1064      C1068   1.534       .  S
C1064      C1066   1.527       .  S
C1064      H1070   1.111       .  S
C1065      C1066   1.379       .  D
C1065      H1071   1.075       .  S
C1066      C1083   1.507       .  S
C1067      C1068   1.374       .  D
C1067      H1072   1.084       .  S
In1073     O1075   2.272       .  S
In1073     O1556   2.293       .  S
In1073     O1084   2.028       .  S
In1073     O1078   2.126       .  S
In1073     O1080   2.189       .  S
In1073     O1081   2.279       .  S
In1073     O1082   2.232       .  S
In1073     O1085   2.300       .  S
C1074      O1080   1.269       .  A
C1074      O1082   1.273       .  A
O1075      C1563   1.271       .  A
O1076     In1553   2.282       .  S
O1076      C1083   1.279       .  A
C1077      O1084   1.274       .  A
C1077      O1078   1.286       .  A
C1077      C1172   1.425       .  S
C1079      O1081   1.279       .  A
C1079      O1085   1.271       .  A
C1079      C1118   1.511       .  S
C1083      O1555   1.275       .  A
C1086      C1111   1.664       .  S
C1086      C1087   1.545       .  S
C1086      C1092   1.586       .  S
C1086      C1090   1.563       .  S
C1087      C1088   1.371       .  D
C1087      H1094   1.085       .  S
C1088      C1089   1.533       .  S
C1089      C1093   1.526       .  S
C1089      C1091   1.526       .  S
C1089      H1095   1.111       .  S
C1090      C1091   1.380       .  D
C1090      H1096   1.075       .  S
C1091      C1104   1.509   1_545  S
C1092      C1093   1.399       .  D
C1092      H1097   1.084       .  S
C1093      C1154   1.515       .  S
In1098     O1100   2.302       .  S
In1098     O1101   2.278       .  S
In1098     O1589   2.016       .  S
In1098     O1103   2.137       .  S
In1098     O1105   2.187       .  S
In1098     O1586   2.300       .  S
In1098     O1107   2.234       .  S
In1098     O1590   2.281       .  S
C1099      O1105   1.268       .  A
C1099      O1107   1.272       .  A
O1100      C1108   1.271       .  A
O1101      C1108   1.279       .  A
C1102      O1589   1.272       .  A
C1102      O1103   1.286       .  A
C1102      C1175   1.423       .  S
C1104      O1106   1.280   1_565  A
C1104      O1110   1.275       .  A
O1106     In1578   2.284   1_545  S
C1108      C1138   1.511       .  S
O1109     In1578   2.090       .  S
O1109      C1582   1.287       .  A
O1110     In1578   2.272       .  S
C1111      C1112   1.547       .  S
C1111      C1117   1.582       .  S
C1111      C1115   1.557       .  S
C1112      C1113   1.373       .  D
C1112      H1119   1.085       .  S
C1113      C1114   1.533       .  S
C1114      C1118   1.527       .  S
C1114      C1116   1.528       .  S
C1114      H1120   1.111       .  S
C1115      C1116   1.378       .  D
C1115      H1121   1.076       .  S
C1116      C1129   1.510   1_545  S
C1117      C1118   1.399       .  D
C1117      H1122   1.084       .  S
In1123     O1365   2.296   1_554  S
In1123     O1366   2.275   1_554  S
In1123     O1854   2.129   1_554  S
In1123     O1128   2.003       .  S
In1123     O1130   2.186       .  S
In1123     O1611   2.290       .  S
In1123     O1132   2.234       .  S
In1123     O1615   2.264       .  S
C1124      O1130   1.269       .  A
C1124      O1132   1.275       .  A
O1125     In1363   2.298       .  S
O1125      C1133   1.273       .  A
O1126     In1363   2.273       .  S
O1126      C1133   1.280       .  A
C1127      O1854   1.290   1_554  A
C1127      O1128   1.281       .  A
C1127      C1402   1.425   1_554  S
C1129      O1131   1.278       .  A
C1129      O1135   1.270       .  A
O1131     In1603   2.296       .  S
O1134     In1843   2.019       .  S
O1134      C1847   1.270       .  A
O1135     In1603   2.274       .  S
C1136      C1137   1.583       .  S
C1136      C1142   1.547       .  S
C1136      C1140   1.560       .  S
C1137      C1138   1.399       .  D
C1137      H1144   1.084       .  S
C1138      C1139   1.525       .  S
C1139      C1143   1.534       .  S
C1139      C1141   1.527       .  S
C1139      H1145   1.111       .  S
C1140      C1141   1.380       .  D
C1140      H1146   1.078       .  S
C1141      C1158   1.512       .  S
C1142      C1143   1.373       .  D
C1142      H1147   1.084       .  S
In1148     O1150   2.263       .  S
In1148     O1631   2.287       .  S
In1148     O1159   2.123       .  S
In1148     O1153   2.011       .  S
In1148     O1155   2.190       .  S
In1148     O1396   2.270       .  S
In1148     O1157   2.234       .  S
In1148     O1160   2.303       .  S
C1149      O1155   1.269       .  A
C1149      O1157   1.275       .  A
O1150      C1638   1.275       .  A
O1151     In1628   2.289       .  S
O1151      C1158   1.280       .  A
C1152      O1159   1.289       .  A
C1152      O1153   1.282       .  A
C1152      C1165   1.426       .  S
C1154      O1156   1.280   1_554  A
C1154      O1400   1.274   1_554  A
O1156     In1388   2.272       .  S
C1158      O1630   1.273       .  A
O1160      C1394   1.274       .  A
C1161      C1162   1.409       .  A
C1161      C1166   1.372       .  A
C1161     Br1168   1.946       .  S
C1162      C1367   1.422       .  S
C1162      C1643   1.410       .  A
C1163      C1642   1.413   1_545  A
C1163      C1164   1.364       .  A
C1163     Br1410   1.959       .  S
C1164      C1165   1.413       .  A
C1164     Br1169   1.960       .  S
C1165      C1646   1.412   1_545  A
C1166      C1645   1.408       .  A
C1166     Br1167   1.949       .  S
Br1170     C1403   1.959       .  S
C1171      C1652   1.412       .  A
C1171      C1176   1.386       .  A
C1171     Br1178   1.940       .  S
C1172      C1651   1.413   1_545  A
C1172      C1173   1.408       .  A
C1173      C1174   1.382       .  A
C1173     Br1180   1.940       .  S
C1174      C1655   1.411       .  A
C1174     Br1179   1.944       .  S
C1175      C1654   1.409       .  A
C1175      C1176   1.405       .  A
C1176     Br1177   1.938       .  S
C1181      C1422   1.409       .  A
C1181      C1426   1.370   1_554  A
C1181     Br1188   1.949       .  S
C1182      C1421   1.408       .  A
C1182      C1183   1.412       .  A
C1183      C1184   1.377       .  A
C1184      C1185   1.407       .  A
C1184     Br1189   1.941       .  S
C1185      C1186   1.410       .  A
C1186      C1421   1.371       .  A
C1186     Br1427   1.950       .  S
Br1187     C1426   1.949       .  S
C1191      C1192   1.412       .  A
C1191      C1196   1.365       .  A
C1191     Br1198   1.951       .  S
C1192      C1193   1.409       .  A
C1193      C1194   1.382       .  A
C1193     Br1200   1.940       .  S
C1194      C1195   1.409       .  A
C1195      C1196   1.405       .  A
C1196     Br1197   1.947       .  S
In1201     O1203   2.298       .  S
In1201     O1204   2.280       .  S
In1201     O1212   2.048       .  S
In1201     O1206   2.111       .  S
In1201     O1208   2.193       .  S
In1201     O1209   2.289       .  S
In1201     O1210   2.236       .  S
In1201     O1213   2.267       .  S
C1202      O1208   1.269       .  A
C1202      O1210   1.273       .  A
C1202      C1308   1.476       .  S
O1203      C1211   1.272       .  A
O1204      C1211   1.280       .  A
C1205      O1212   1.277       .  A
C1205      O1206   1.286       .  A
C1207      O1209   1.280       .  A
C1207      O1213   1.271       .  A
C1207      C1219   1.506       .  S
C1211      C1253   1.512       .  S
C1214      C1276   1.665       .  S
C1215      C1216   1.372   1_455  D
C1216      C1314   1.472       .  S
C1216      C1217   1.532       .  S
C1217      C1221   1.525       .  S
C1217      C1219   1.525       .  S
C1217      H1223   1.111       .  S
C1218      C1219   1.379   1_455  D
C1220      C1221   1.399   1_455  D
C1221      C1269   1.512       .  S
C1226      C1251   1.662       .  S
C1226      C1227   1.583       .  S
C1226      C1232   1.545       .  S
C1226      C1230   1.559       .  S
C1227      C1228   1.399       .  D
C1227      H1234   1.084       .  S
C1228      C1298   1.511       .  S
C1228      C1229   1.526       .  S
C1229      C1233   1.533       .  S
C1229      C1231   1.527       .  S
C1229      H1235   1.111       .  S
C1230      C1231   1.379       .  D
C1230      H1236   1.072       .  S
C1231      C1248   1.510       .  S
C1232      C1233   1.372       .  D
C1232      H1237   1.085       .  S
C1233      C1339   1.473       .  S
In1238     O1240   2.275       .  S
In1238     O1241   2.292       .  S
In1238     O1249   2.021       .  S
In1238     O1243   2.142       .  S
In1238     O1245   2.192       .  S
In1238     O1246   2.277       .  S
In1238     O1247   2.237       .  S
In1238     O1250   2.305       .  S
C1239      O1245   1.270       .  A
C1239      O1247   1.272       .  A
C1239      C1328   1.475       .  S
O1240      C1248   1.271       .  A
O1241      C1248   1.278       .  A
C1242      O1249   1.272       .  A
C1242      O1243   1.286       .  A
C1242      C1432   1.425       .  S
C1244      O1246   1.279       .  A
C1244      O1250   1.272       .  A
C1244      C1283   1.512       .  S
C1252      C1253   1.399   1_455  D
C1253      C1254   1.528       .  S
C1254      C1258   1.535       .  S
C1254      C1256   1.527       .  S
C1254      H1260   1.111       .  S
C1255      C1256   1.379   1_455  D
C1256      C1273   1.508       .  S
C1257      C1258   1.372   1_455  D
C1258      C1364   1.476       .  S
In1263     O1265   2.270       .  S
In1263     O1266   2.293       .  S
In1263     O1268   2.135       .  S
In1263     O1270   2.185       .  S
In1263     O1272   2.230       .  S
C1264      O1270   1.269       .  A
C1264      O1272   1.272       .  A
C1264      C1353   1.471       .  S
O1265      C1273   1.270       .  A
O1266      C1273   1.279       .  A
C1267      O1268   1.286       .  A
C1269      O1271   1.279       .  A
C1269      O1275   1.271       .  A
C1276      C1277   1.545       .  S
C1276      C1282   1.583       .  S
C1276      C1280   1.559       .  S
C1277      C1278   1.372       .  D
C1277      H1284   1.085       .  S
C1278      C1389   1.477       .  S
C1278      C1279   1.535       .  S
C1279      C1283   1.527       .  S
C1279      C1281   1.529       .  S
C1279      H1285   1.111       .  S
C1280      C1281   1.381       .  D
C1280      H1286   1.077       .  S
C1281      C1294   1.511       .  S
C1282      C1283   1.399       .  D
C1282      H1287   1.083       .  S
In1288     O1290   2.301       .  S
In1288     O1299   2.058       .  S
In1288     O1293   2.095       .  S
In1288     O1295   2.191       .  S
In1288     O1296   2.288       .  S
In1288     O1297   2.238       .  S
In1288     O1300   2.271       .  S
C1289      O1295   1.269       .  A
C1289      O1297   1.273       .  A
C1289      C1383   1.475       .  S
O1291      C1298   1.280       .  A
C1292      O1299   1.279       .  A
C1292      O1293   1.286       .  A
C1292      C1425   1.425       .  S
C1294      O1296   1.280       .  A
C1294      O1300   1.272       .  A
C1301      C1376   1.664       .  S
C1301      C1302   1.585       .  S
C1301      C1307   1.544       .  S
C1301      C1305   1.561       .  S
C1302      C1303   1.400       .  D
C1302      H1309   1.084       .  S
C1303      C1373   1.514       .  S
C1303      C1304   1.527       .  S
C1304      C1308   1.535       .  S
C1304      C1306   1.527       .  S
C1304      H1310   1.111       .  S
C1305      C1306   1.380       .  D
C1305      H1311   1.076       .  S
C1306      C1323   1.511       .  S
C1307      C1308   1.371       .  D
C1307      H1312   1.085       .  S
In1313     O1315   2.268       .  S
In1313     O1796   2.290       .  S
In1313     O1324   2.025       .  S
In1313     O1318   2.135       .  S
In1313     O1320   2.185       .  S
In1313     O1321   2.279       .  S
In1313     O1322   2.235       .  S
In1313     O1325   2.301       .  S
C1314      O1320   1.269       .  A
C1314      O1322   1.272       .  A
O1315      C1803   1.271       .  A
O1316     In1793   2.290       .  S
O1316      C1323   1.280       .  A
C1317      O1324   1.273       .  A
C1317      O1318   1.286       .  A
C1317      C1412   1.425       .  S
C1319      O1321   1.279       .  A
C1319      O1325   1.271       .  A
C1319      C1358   1.512       .  S
C1323      O1795   1.275       .  A
C1326      C1351   1.666       .  S
C1326      C1327   1.546       .  S
C1326      C1332   1.587       .  S
C1326      C1330   1.562       .  S
C1327      C1328   1.372       .  D
C1327      H1334   1.085       .  S
C1328      C1329   1.531       .  S
C1329      C1333   1.525       .  S
C1329      C1331   1.524       .  S
C1329      H1335   1.111       .  S
C1330      C1331   1.379       .  D
C1330      H1336   1.073       .  S
C1331      C1344   1.508   1_545  S
C1332      C1333   1.399       .  D
C1332      H1337   1.084       .  S
C1333      C1394   1.515       .  S
In1338     O1340   2.305       .  S
In1338     O1341   2.279       .  S
In1338     O1829   2.036       .  S
In1338     O1343   2.112       .  S
In1338     O1345   2.187       .  S
In1338     O1826   2.295       .  S
In1338     O1347   2.238       .  S
In1338     O1830   2.273       .  S
C1339      O1345   1.269       .  A
C1339      O1347   1.273       .  A
O1340      C1348   1.272       .  A
O1341      C1348   1.280       .  A
C1342      O1829   1.277       .  A
C1342      O1343   1.286       .  A
C1342      C1415   1.422       .  S
C1344      O1346   1.280       .  A
C1344      O1350   1.275       .  A
O1346     In1818   2.283       .  S
C1348      C1378   1.513       .  S
O1349     In1818   2.091       .  S
O1349      C1822   1.287       .  A
O1350     In1818   2.270       .  S
C1351      C1352   1.545       .  S
C1351      C1357   1.583       .  S
C1351      C1355   1.558       .  S
C1352      C1353   1.373       .  D
C1352      H1359   1.085       .  S
C1353      C1354   1.532       .  S
C1354      C1358   1.527       .  S
C1354      C1356   1.525       .  S
C1354      H1360   1.111       .  S
C1355      C1356   1.379       .  D
C1355      H1361   1.075       .  S
C1356      C1369   1.509   1_545  S
C1357      C1358   1.400       .  D
C1357      H1362   1.084       .  S
In1363     O1614   2.076       .  S
In1363     O1368   2.067       .  S
In1363     O1370   2.191       .  S
In1363     O1851   2.288       .  S
In1363     O1372   2.237       .  S
In1363     O1855   2.270       .  S
C1364      O1370   1.269       .  A
C1364      O1372   1.274       .  A
O1365      C1373   1.273       .  A
O1366      C1373   1.281       .  A
C1367      O1614   1.283       .  A
C1367      O1368   1.286       .  A
C1369      O1371   1.279       .  A
C1369      O1375   1.270       .  A
O1371     In1843   2.294       .  S
O1374     In1603   2.011       .  S
O1374      C1607   1.268       .  A
O1375     In1843   2.273       .  S
C1376      C1377   1.583       .  S
C1376      C1382   1.546       .  S
C1376      C1380   1.558       .  S
C1377      C1378   1.399       .  D
C1377      H1384   1.083       .  S
C1378      C1379   1.527       .  S
C1379      C1383   1.534       .  S
C1379      C1381   1.527       .  S
C1379      H1385   1.111       .  S
C1380      C1381   1.379       .  D
C1380      H1386   1.074       .  S
C1381      C1398   1.510       .  S
C1382      C1383   1.374       .  D
C1382      H1387   1.085       .  S
In1388     O1390   2.266       .  S
In1388     O1871   2.289       .  S
In1388     O1399   2.126       .  S
In1388     O1393   2.009       .  S
In1388     O1395   2.193       .  S
In1388     O1397   2.234       .  S
In1388     O1400   2.300       .  S
C1389      O1395   1.270       .  A
C1389      O1397   1.274       .  A
O1390      C1878   1.275       .  A
O1391     In1868   2.293       .  S
O1391      C1398   1.278       .  A
C1392      O1399   1.289       .  A
C1392      O1393   1.282       .  A
C1392      C1405   1.426       .  S
C1394      O1396   1.280       .  A
C1398      O1870   1.269       .  A
C1401      C1402   1.412       .  A
C1401      C1406   1.360       .  A
C1401     Br1408   1.963   1_556  S
C1402      C1883   1.412       .  A
C1403      C1882   1.414   1_546  A
C1403      C1404   1.362       .  A
C1404      C1405   1.411       .  A
C1404     Br1409   1.961       .  S
C1405      C1886   1.412   1_545  A
C1406      C1885   1.415       .  A
C1406     Br1407   1.960       .  S
C1411      C1892   1.409       .  A
C1411      C1416   1.381       .  A
C1411     Br1418   1.943       .  S
C1412      C1891   1.413   1_545  A
C1412      C1413   1.409       .  A
C1413      C1414   1.383       .  A
C1413     Br1420   1.939       .  S
C1414      C1895   1.410       .  A
C1414     Br1419   1.944       .  S
C1415      C1894   1.412       .  A
C1415      C1416   1.410       .  A
C1416     Br1417   1.941       .  S
C1421     Br1428   1.947       .  S
C1422      C1423   1.411   1_554  A
C1423      C1424   1.379       .  A
C1424      C1425   1.410       .  A
C1424     Br1429   1.942       .  S
C1425      C1426   1.410       .  A
C1431      C1432   1.414       .  A
C1431      C1436   1.364       .  A
C1431     Br1438   1.954       .  S
C1432      C1433   1.409       .  A
C1433      C1434   1.383       .  A
C1433     Br1440   1.938       .  S
C1434      C1435   1.409       .  A
C1435      C1436   1.407       .  A
C1436     Br1437   1.955       .  S
In1441     O1443   2.299       .  S
In1441     O1444   2.268       .  S
In1441     O1452   2.122       .  S
In1441     O1446   2.018       .  S
In1441     O1448   2.192       .  S
In1441     O1449   2.283       .  S
In1441     O1450   2.235       .  S
In1441     O1453   2.263       .  S
C1442      O1448   1.270       .  A
C1442      O1450   1.274       .  A
C1442      C1548   1.477       .  S
O1443      C1451   1.274       .  A
O1444      C1451   1.280       .  A
C1445      O1452   1.289       .  A
C1445      O1446   1.283       .  A
C1447      O1449   1.280       .  A
C1447      O1453   1.275       .  A
C1447      C1459   1.507       .  S
C1451      C1493   1.513       .  S
C1454      C1516   1.665       .  S
C1455      C1456   1.372   1_455  D
C1456      C1554   1.477       .  S
C1456      C1457   1.534       .  S
C1457      C1461   1.526       .  S
C1457      C1459   1.525       .  S
C1457      H1463   1.111       .  S
C1458      C1459   1.381   1_455  D
C1460      C1461   1.397   1_455  D
C1461      C1509   1.513       .  S
C1466      C1491   1.666       .  S
C1466      C1467   1.586       .  S
C1466      C1472   1.547       .  S
C1466      C1470   1.563       .  S
C1467      C1468   1.399       .  D
C1467      H1474   1.084       .  S
C1468      C1538   1.513       .  S
C1468      C1469   1.524       .  S
C1469      C1473   1.531       .  S
C1469      C1471   1.525       .  S
C1469      H1475   1.111       .  S
C1470      C1471   1.381       .  D
C1470      H1476   1.081       .  S
C1471      C1488   1.511       .  S
C1472      C1473   1.372       .  D
C1472      H1477   1.084       .  S
C1473      C1579   1.474       .  S
In1478     O1480   2.273       .  S
In1478     O1481   2.293       .  S
In1478     O1489   2.055       .  S
In1478     O1483   2.062       .  S
In1478     O1485   2.184       .  S
In1478     O1486   2.276       .  S
In1478     O1487   2.226       .  S
In1478     O1490   2.309       .  S
C1479      O1485   1.269       .  A
C1479      O1487   1.274       .  A
C1479      C1568   1.471       .  S
O1480      C1488   1.273       .  A
O1481      C1488   1.280       .  A
C1482      O1489   1.282       .  A
C1482      O1483   1.285       .  A
C1482      C1672   1.418       .  S
C1484      O1486   1.280       .  A
C1484      O1490   1.273       .  A
C1484      C1523   1.515       .  S
C1492      C1493   1.397   1_455  D
C1493      C1494   1.525       .  S
C1494      C1498   1.532       .  S
C1494      C1496   1.524       .  S
C1494      H1500   1.111       .  S
C1495      C1496   1.378   1_455  D
C1496      C1513   1.506       .  S
C1497      C1498   1.372   1_455  D
C1498      C1604   1.474       .  S
In1503     O1505   2.256       .  S
In1503     O1506   2.281       .  S
In1503     O1754   2.142   1_554  S
In1503     O1508   2.011       .  S
In1503     O1510   2.189       .  S
In1503     O1751   2.263   1_554  S
In1503     O1512   2.236       .  S
In1503     O1755   2.297   1_554  S
C1504      O1510   1.270       .  A
C1504      O1512   1.274       .  A
C1504      C1593   1.475       .  S
O1505      C1513   1.275       .  A
O1506      C1513   1.280       .  A
C1507      O1754   1.289   1_554  A
C1507      O1508   1.280       .  A
C1509      O1511   1.280       .  A
C1509      O1515   1.274       .  A
O1511     In1743   2.267       .  S
O1514     In1743   2.118       .  S
O1514      C1747   1.287       .  A
O1515     In1743   2.295       .  S
C1516      C1517   1.546       .  S
C1516      C1522   1.583       .  S
C1516      C1520   1.561       .  S
C1517      C1518   1.371       .  D
C1517      H1524   1.084       .  S
C1518      C1629   1.474       .  S
C1518      C1519   1.533       .  S
C1519      C1523   1.528       .  S
C1519      C1521   1.528       .  S
C1519      H1525   1.111       .  S
C1520      C1521   1.380       .  D
C1520      H1526   1.077       .  S
C1521      C1534   1.510       .  S
C1522      C1523   1.398       .  D
C1522      H1527   1.083       .  S
In1528     O1530   2.300       .  S
In1528     O1771   2.274       .  S
In1528     O1539   2.077       .  S
In1528     O1533   2.059       .  S
In1528     O1535   2.193       .  S
In1528     O1536   2.290       .  S
In1528     O1537   2.230       .  S
In1528     O1540   2.270       .  S
C1529      O1535   1.270       .  A
C1529      O1537   1.274       .  A
C1529      C1623   1.474       .  S
O1530      C1778   1.273       .  A
O1531     In1768   2.267       .  S
O1531      C1538   1.280   1_556  A
C1532      O1539   1.284       .  A
C1532      O1533   1.286       .  A
C1532      C1665   1.423       .  S
C1534      O1536   1.280       .  A
C1534      O1540   1.274       .  A
C1538      O1770   1.273   1_554  A
C1541      C1616   1.664       .  S
C1541      C1542   1.583       .  S
C1541      C1547   1.547       .  S
C1541      C1545   1.557       .  S
C1542      C1543   1.399       .  D
C1542      H1549   1.083       .  S
C1543      C1613   1.512       .  S
C1543      C1544   1.527       .  S
C1544      C1548   1.534       .  S
C1544      C1546   1.528       .  S
C1544      H1550   1.111       .  S
C1545      C1546   1.380       .  D
C1545      H1551   1.077   1_565  S
C1546      C1563   1.510   1_565  S
C1547      C1548   1.373       .  D
C1547      H1552   1.084       .  S
In1553     O1555   2.263       .  S
In1553     O1564   2.117       .  S
In1553     O1558   2.034       .  S
In1553     O1560   2.195       .  S
In1553     O1561   2.262       .  S
In1553     O1562   2.232       .  S
In1553     O1565   2.296       .  S
C1554      O1560   1.271       .  A
C1554      O1562   1.274       .  A
O1556      C1563   1.279       .  A
C1557      O1564   1.288       .  A
C1557      O1558   1.284       .  A
C1557      C1652   1.426       .  S
C1559      O1561   1.279       .  A
C1559      O1565   1.274       .  A
C1559      C1598   1.510       .  S
C1566      C1591   1.661       .  S
C1566      C1567   1.544       .  S
C1566      C1572   1.577       .  S
C1566      C1570   1.560       .  S
C1567      C1568   1.371       .  D
C1567      H1574   1.085       .  S
C1568      C1569   1.533       .  S
C1569      C1573   1.527       .  S
C1569      C1571   1.528       .  S
C1569      H1575   1.111       .  S
C1570      C1571   1.381       .  D
C1570      H1576   1.074       .  S
C1571      C1584   1.514       .  S
C1572      C1573   1.397       .  D
C1572      H1577   1.084       .  S
C1573      C1634   1.506       .  S
In1578     O1580   2.302       .  S
In1578     O1581   2.271       .  S
In1578     O1583   2.038       .  S
In1578     O1585   2.183       .  S
In1578     O1587   2.234       .  S
C1579      O1585   1.270       .  A
C1579      O1587   1.273       .  A
O1580      C1588   1.274       .  A
O1581      C1588   1.280       .  A
C1582      O1583   1.286       .  A
C1582      C1655   1.423   1_565  S
C1584      O1586   1.279       .  A
C1584      O1590   1.271       .  A
C1588      C1618   1.515       .  S
C1591      C1592   1.546       .  S
C1591      C1597   1.583       .  S
C1591      C1595   1.561       .  S
C1592      C1593   1.371       .  D
C1592      H1599   1.084       .  S
C1593      C1594   1.534       .  S
C1594      C1598   1.526       .  S
C1594      C1596   1.527       .  S
C1594      H1600   1.111       .  S
C1595      C1596   1.380       .  D
C1595      H1601   1.071       .  S
C1596      C1609   1.510       .  S
C1597      C1598   1.396       .  D
C1597      H1602   1.084       .  S
In1603     O1845   2.303   1_554  S
In1603     O1846   2.279   1_554  S
In1603     O1608   2.160       .  S
In1603     O1610   2.190       .  S
In1603     O1612   2.238       .  S
C1604      O1610   1.269       .  A
C1604      O1612   1.272       .  A
O1605     In1843   2.303       .  S
O1605      C1613   1.271       .  A
O1606     In1843   2.281       .  S
O1606      C1613   1.279       .  A
C1607      O1608   1.285       .  A
C1607      C1882   1.427       .  S
C1609      O1611   1.280       .  A
C1609      O1615   1.275       .  A
C1616      C1617   1.585       .  S
C1616      C1622   1.544       .  S
C1616      C1620   1.564       .  S
C1617      C1618   1.397       .  D
C1617      H1624   1.084       .  S
C1618      C1619   1.527       .  S
C1619      C1623   1.534       .  S
C1619      C1621   1.526       .  S
C1619      H1625   1.111       .  S
C1620      C1621   1.382       .  D
C1620      H1626   1.076   1_565  S
C1621      C1638   1.509   1_565  S
C1622      C1623   1.370       .  D
C1622      H1627   1.085       .  S
In1628     O1630   2.273       .  S
In1628     O1639   2.069       .  S
In1628     O1633   2.067       .  S
In1628     O1635   2.192       .  S
In1628     O1876   2.272       .  S
In1628     O1637   2.231       .  S
In1628     O1640   2.300       .  S
C1629      O1635   1.269       .  A
C1629      O1637   1.273       .  A
O1631      C1638   1.280       .  A
C1632      O1639   1.282       .  A
C1632      O1633   1.286       .  A
C1632      C1645   1.421       .  S
C1634      O1636   1.278   1_554  A
C1634      O1880   1.270   1_554  A
O1636     In1868   2.278       .  S
O1640      C1874   1.273       .  A
C1641      C1642   1.408       .  A
C1641      C1646   1.387       .  A
C1641     Br1648   1.939       .  S
C1642      C1847   1.427       .  S
C1643      C1644   1.374       .  A
C1643     Br1890   1.948       .  S
C1644      C1645   1.409       .  A
C1644     Br1649   1.945       .  S
C1646     Br1647   1.941       .  S
Br1650     C1883   1.940       .  S
C1651      C1656   1.366       .  A
C1651     Br1658   1.954       .  S
C1652      C1653   1.409       .  A
C1653      C1654   1.361       .  A
C1653     Br1660   1.950       .  S
C1654     Br1659   1.956       .  S
C1655      C1656   1.408   1_545  A
C1656     Br1657   1.954       .  S
C1661      C1902   1.408       .  A
C1661      C1906   1.375   1_554  A
C1661     Br1668   1.945       .  S
C1662      C1901   1.408       .  A
C1662      C1663   1.408       .  A
C1663      C1664   1.370       .  A
C1664      C1665   1.409       .  A
C1664     Br1669   1.947       .  S
C1665      C1666   1.410       .  A
C1666      C1901   1.376       .  A
C1666     Br1907   1.948       .  S
Br1667     C1906   1.947       .  S
C1671      C1672   1.411       .  A
C1671      C1676   1.373       .  A
C1671     Br1678   1.953       .  S
C1672      C1673   1.411       .  A
C1673      C1674   1.375       .  A
C1673     Br1680   1.953       .  S
C1674      C1675   1.413       .  A
C1675      C1676   1.411       .  A
C1676     Br1677   1.948       .  S
In1681     O1683   2.296       .  S
In1681     O1684   2.268       .  S
In1681     O1692   2.112       .  S
In1681     O1686   2.024       .  S
In1681     O1688   2.185       .  S
In1681     O1689   2.282       .  S
In1681     O1690   2.233       .  S
In1681     O1693   2.264       .  S
C1682      O1688   1.270       .  A
C1682      O1690   1.274       .  A
C1682      C1788   1.474       .  S
O1683      C1691   1.274       .  A
O1684      C1691   1.280       .  A
C1685      O1692   1.288       .  A
C1685      O1686   1.283       .  A
C1687      O1689   1.280       .  A
C1687      O1693   1.274       .  A
C1687      C1699   1.507       .  S
C1691      C1733   1.513       .  S
C1694      C1756   1.666       .  S
C1695      C1696   1.372   1_455  D
C1696      C1794   1.476       .  S
C1696      C1697   1.532       .  S
C1697      C1701   1.524       .  S
C1697      C1699   1.524       .  S
C1697      H1703   1.111       .  S
C1698      C1699   1.380   1_455  D
C1700      C1701   1.398   1_455  D
C1701      C1749   1.513       .  S
C1706      C1731   1.663       .  S
C1706      C1707   1.584       .  S
C1706      C1712   1.546       .  S
C1706      C1710   1.560       .  S
C1707      C1708   1.399       .  D
C1707      H1714   1.084       .  S
C1708      C1778   1.514       .  S
C1708      C1709   1.527       .  S
C1709      C1713   1.531       .  S
C1709      C1711   1.525       .  S
C1709      H1715   1.111       .  S
C1710      C1711   1.379       .  D
C1710      H1716   1.079       .  S
C1711      C1728   1.508       .  S
C1712      C1713   1.372       .  D
C1712      H1717   1.084       .  S
C1713      C1819   1.472       .  S
In1718     O1720   2.271       .  S
In1718     O1721   2.291       .  S
In1718     O1729   2.022       .  S
In1718     O1723   2.132       .  S
In1718     O1725   2.185       .  S
In1718     O1726   2.274       .  S
In1718     O1727   2.233       .  S
In1718     O1730   2.302       .  S
C1719      O1725   1.269       .  A
C1719      O1727   1.272       .  A
C1719      C1808   1.472       .  S
O1720      C1728   1.270       .  A
O1721      C1728   1.279       .  A
C1722      O1729   1.272       .  A
C1722      O1723   1.286       .  A
C1722      C1912   1.424       .  S
C1724      O1726   1.279       .  A
C1724      O1730   1.271       .  A
C1724      C1763   1.510       .  S
C1732      C1733   1.397   1_455  D
C1733      C1734   1.525       .  S
C1734      C1738   1.533       .  S
C1734      C1736   1.524       .  S
C1734      H1740   1.111       .  S
C1735      C1736   1.380   1_455  D
C1736      C1753   1.504       .  S
C1737      C1738   1.371   1_455  D
C1738      C1844   1.475       .  S
In1743     O1745   2.259       .  S
In1743     O1746   2.279       .  S
In1743     O1748   2.033       .  S
In1743     O1750   2.191       .  S
In1743     O1752   2.235       .  S
C1744      O1750   1.270       .  A
C1744      O1752   1.274       .  A
C1744      C1833   1.476       .  S
O1745      C1753   1.275       .  A
O1746      C1753   1.280       .  A
C1747      O1748   1.283       .  A
C1749      O1751   1.280       .  A
C1749      O1755   1.274       .  A
C1756      C1757   1.549       .  S
C1756      C1762   1.583       .  S
C1756      C1760   1.560       .  S
C1757      C1758   1.374       .  D
C1757      H1764   1.084       .  S
C1758      C1869   1.472       .  S
C1758      C1759   1.530       .  S
C1759      C1763   1.523       .  S
C1759      C1761   1.525       .  S
C1759      H1765   1.111       .  S
C1760      C1761   1.380       .  D
C1760      H1766   1.080       .  S
C1761      C1774   1.507       .  S
C1762      C1763   1.398       .  D
C1762      H1767   1.083       .  S
In1768     O1770   2.303       .  S
In1768     O1779   2.076       .  S
In1768     O1773   2.061       .  S
In1768     O1775   2.187       .  S
In1768     O1776   2.285       .  S
In1768     O1777   2.227       .  S
In1768     O1780   2.265       .  S
C1769      O1775   1.269       .  A
C1769      O1777   1.274       .  A
C1769      C1863   1.471       .  S
O1771      C1778   1.280       .  A
C1772      O1779   1.284       .  A
C1772      O1773   1.285       .  A
C1772      C1905   1.423       .  S
C1774      O1776   1.280       .  A
C1774      O1780   1.273       .  A
C1781      C1856   1.662       .  S
C1781      C1782   1.583       .  S
C1781      C1787   1.546       .  S
C1781      C1785   1.556       .  S
C1782      C1783   1.399       .  D
C1782      H1789   1.083       .  S
C1783      C1853   1.510       .  S
C1783      C1784   1.526       .  S
C1784      C1788   1.533       .  S
C1784      C1786   1.526       .  S
C1784      H1790   1.111       .  S
C1785      C1786   1.379       .  D
C1785      H1791   1.076   1_565  S
C1786      C1803   1.507   1_565  S
C1787      C1788   1.372       .  D
C1787      H1792   1.084       .  S
In1793     O1795   2.273       .  S
In1793     O1804   2.082       .  S
In1793     O1798   2.053       .  S
In1793     O1800   2.193       .  S
In1793     O1801   2.269       .  S
In1793     O1802   2.233       .  S
In1793     O1805   2.303       .  S
C1794      O1800   1.271       .  A
C1794      O1802   1.273       .  A
O1796      C1803   1.279       .  A
C1797      O1804   1.286       .  A
C1797      O1798   1.287       .  A
C1797      C1892   1.421       .  S
C1799      O1801   1.280       .  A
C1799      O1805   1.274       .  A
C1799      C1838   1.514       .  S
C1806      C1831   1.661       .  S
C1806      C1807   1.545       .  S
C1806      C1812   1.581       .  S
C1806      C1810   1.561       .  S
C1807      C1808   1.372       .  D
C1807      H1814   1.085       .  S
C1808      C1809   1.532       .  S
C1809      C1813   1.527       .  S
C1809      C1811   1.527       .  S
C1809      H1815   1.111       .  S
C1810      C1811   1.381       .  D
C1810      H1816   1.076       .  S
C1811      C1824   1.511       .  S
C1812      C1813   1.397       .  D
C1812      H1817   1.084       .  S
C1813      C1874   1.511       .  S
In1818     O1820   2.300       .  S
In1818     O1821   2.270       .  S
In1818     O1823   2.034       .  S
In1818     O1825   2.181       .  S
In1818     O1827   2.231       .  S
C1819      O1825   1.270       .  A
C1819      O1827   1.273       .  A
O1820      C1828   1.274       .  A
O1821      C1828   1.280       .  A
C1822      O1823   1.285       .  A
C1822      C1895   1.422   1_565  S
C1824      O1826   1.280       .  A
C1824      O1830   1.271       .  A
C1828      C1858   1.514       .  S
C1831      C1832   1.546       .  S
C1831      C1837   1.584       .  S
C1831      C1835   1.560       .  S
C1832      C1833   1.371       .  D
C1832      H1839   1.085       .  S
C1833      C1834   1.534       .  S
C1834      C1838   1.529       .  S
C1834      C1836   1.528       .  S
C1834      H1840   1.111       .  S
C1835      C1836   1.381       .  D
C1835      H1841   1.077       .  S
C1836      C1849   1.509       .  S
C1837      C1838   1.398       .  D
C1837      H1842   1.084       .  S
In1843     O1848   2.148       .  S
In1843     O1850   2.193       .  S
In1843     O1852   2.236       .  S
C1844      O1850   1.269       .  A
C1844      O1852   1.272       .  A
O1845      C1853   1.271       .  A
O1846      C1853   1.279       .  A
C1847      O1848   1.285       .  A
C1849      O1851   1.280       .  A
C1849      O1855   1.273       .  A
C1856      C1857   1.585       .  S
C1856      C1862   1.542       .  S
C1856      C1860   1.563       .  S
C1857      C1858   1.397       .  D
C1857      H1864   1.084       .  S
C1858      C1859   1.527       .  S
C1859      C1863   1.534       .  S
C1859      C1861   1.526       .  S
C1859      H1865   1.111       .  S
C1860      C1861   1.381       .  D
C1860      H1866   1.075   1_565  S
C1861      C1878   1.510   1_565  S
C1862      C1863   1.369       .  D
C1862      H1867   1.085       .  S
In1868     O1870   2.276       .  S
In1868     O1879   2.004       .  S
In1868     O1873   2.171       .  S
In1868     O1875   2.186       .  S
In1868     O1877   2.236       .  S
In1868     O1880   2.295       .  S
C1869      O1875   1.269       .  A
C1869      O1877   1.271       .  A
O1871      C1878   1.280       .  A
C1872      O1879   1.265       .  A
C1872      O1873   1.284       .  A
C1872      C1885   1.427       .  S
C1874      O1876   1.279       .  A
C1881      C1882   1.409       .  A
C1881      C1886   1.388   1_554  A
C1881     Br1888   1.937       .  S
C1883      C1884   1.389       .  A
C1884      C1885   1.408       .  A
C1884     Br1889   1.936       .  S
C1886     Br1887   1.940       .  S
C1891      C1896   1.365       .  A
C1891     Br1898   1.954       .  S
C1892      C1893   1.403       .  A
C1893      C1894   1.365       .  A
C1893     Br1900   1.948       .  S
C1894     Br1899   1.949       .  S
C1895      C1896   1.407   1_545  A
C1896     Br1897   1.954       .  S
C1901     Br1908   1.941       .  S
C1902      C1903   1.409   1_554  A
C1903      C1904   1.372       .  A
C1904      C1905   1.410       .  A
C1904     Br1909   1.947       .  S
C1905      C1906   1.410       .  A
C1911      C1912   1.414       .  A
C1911      C1916   1.364       .  A
C1911     Br1918   1.958       .  S
C1912      C1913   1.410       .  A
C1913      C1914   1.383       .  A
C1913     Br1920   1.940       .  S
C1914      C1915   1.411       .  A
C1915      C1916   1.410       .  A
C1916     Br1917   1.956       .  S
