geometry optimzed in LAMMPS
_audit_creation_date              2020-12-01 
_audit_creation_method            'lammps2cif' 
_symmetry_space_group_name_H-M    'P1' 
_symmetry_Int_Tables_number       1 
_symmetry_cell_setting            triclinic 
loop_ 
_symmetry_equiv_pos_as_xyz 
  x,y,z 
_cell_length_a                    37.90034772 
_cell_length_b                    29.020172935476516 
_cell_length_c                    27.309431007845784 
_cell_angle_alpha                 109.22872085955798 
_cell_angle_beta                  90.06138422505443 
_cell_angle_gamma                 89.76879498463208 
loop_ 
_atom_site_label 
_atom_site_type_symbol 
_atom_site_fract_x 
_atom_site_fract_y 
_atom_site_fract_z 
_atom_site_charge 
O1          O  0.08913095  0.13907738  0.94409259    -0.81000
O2          O  0.15224882  0.34433763  0.97586752    -0.65700
O3          O  0.13878928  0.21620520  0.97988935    -1.12300
C4          C  0.06625313  0.28839338  0.12358863     1.05900
O5          O  0.15278322  0.38251616  0.06119062    -0.78900
O6          O  0.15839971  0.31465968  0.10942684    -0.66500
Ni7        Ni  0.13059748  0.16250605  0.91757569     1.34900
C8          C  0.15870877  0.27123438  0.11046303     0.84600
O9          O  0.18042674  0.25987918  0.92309862    -0.79500
O10         O  0.17099303  0.17966441  0.88370429    -0.89700
C11         C  0.16076582  0.38016123  0.01510162     0.84200
O12         O  0.10024760  0.19525423  0.88405915    -0.67900
O13         O  0.08771620  0.32398714  0.13260937    -0.87200
C14         C  0.09541420  0.23979708  0.88869869     0.85000
C15         C  0.18651328  0.21964290  0.88722611     1.06600
H16         H  0.08849629  0.30849101  0.01435127     0.38400
O17         O  0.10945200  0.29866462  0.02832592    -1.09900
O18         O  0.13659627  0.23916513  0.08497209    -0.66500
Ni19       Ni  0.10230208  0.23443377  0.03067685     1.26300
O20         O  0.11032143  0.27476522  0.92343247    -0.66800
O21         O  0.06562614  0.25396461  0.08051977    -0.79000
C22         C  0.08132567  0.13865745  0.98935238     0.84400
O23         O  0.09468443  0.16928713  0.02926701    -0.66200
Ni24       Ni  0.12005100  0.34915996  0.09245397     1.27400
Ni25       Ni  0.14534477  0.27986891  0.97603571     1.26100
H26         H  0.15985330  0.20800192  0.99547896     0.38900
O27         O  0.33960607  0.63773945  0.93806879    -0.81000
O28         O  0.40277814  0.84430166  0.97934358    -0.65700
O29         O  0.38826620  0.71492045  0.97974140    -1.12300
C30         C  0.31216331  0.78519167  0.11901288     1.05900
O31         O  0.40235939  0.87994170  0.06491522    -0.78900
O32         O  0.40553403  0.80990306  0.11013488    -0.66500
Ni33       Ni  0.38260683  0.66158071  0.91633759     1.34900
C34         C  0.40490137  0.76619397  0.11017188     0.84600
O35         O  0.43137420  0.76000445  0.92650529    -0.79500
O36         O  0.42495448  0.67915164  0.88758807    -0.89700
C37         C  0.41094762  0.87934579  0.01963982     0.84200
O38         O  0.35525625  0.69481459  0.87976902    -0.67900
O39         O  0.33432624  0.82005367  0.12992629    -0.87200
C40         C  0.34926642  0.73954524  0.88653885     0.85000
C41         C  0.43971055  0.71980123  0.89209119     1.06600
H42         H  0.33774256  0.80753542  0.01349938     0.38400
O43         O  0.35832815  0.79686446  0.02802122    -1.09900
O44         O  0.38256264  0.73498099  0.08391519    -0.66500
Ni45       Ni  0.35017956  0.73196229  0.02788591     1.26300
O46         O  0.36116296  0.77451377  0.92436446    -0.66800
O47         O  0.31208159  0.75082682  0.07576739    -0.79000
C48         C  0.33125794  0.63482078  0.98214310     0.84400
O49         O  0.34201412  0.66616393  0.02367834    -0.66200
Ni50       Ni  0.36825024  0.84594868  0.09306882     1.27400
Ni51       Ni  0.39529709  0.77911023  0.97773915     1.26100
H52         H  0.40869844  0.70682922  0.99666250     0.38900
O53         O  0.34176815  0.36349133  0.55980678    -0.81000
O54         O  0.40736156  0.15798104  0.52622221    -0.65700
O55         O  0.39048723  0.28532006  0.52076668    -1.12300
C56         C  0.31429431  0.21161828  0.38347716     1.05900
O57         O  0.40551348  0.11919036  0.44115213    -0.78900
O58         O  0.40833757  0.18743650  0.39321739    -0.66500
Ni59       Ni  0.38421804  0.33980864  0.58296979     1.34900
C60         C  0.40691930  0.23054535  0.39130171     0.84600
O61         O  0.43617159  0.24316373  0.57459780    -0.79500
O62         O  0.42615014  0.32311221  0.61312827    -0.89700
C63         C  0.41521661  0.12181939  0.48673669     0.84200
O64         O  0.35572533  0.30799808  0.61946357    -0.67900
O65         O  0.33702945  0.17707495  0.37281156    -0.87200
C66         C  0.35092054  0.26368520  0.61565956     0.85000
C67         C  0.44341018  0.28412685  0.60845784     1.06600
H68         H  0.34112498  0.19204220  0.49153183     0.38400
O69         O  0.36120544  0.20231987  0.47603302    -1.09900
O70         O  0.38393866  0.26154281  0.41642598    -0.66500
Ni71       Ni  0.35210175  0.26617237  0.47351223     1.26300
O72         O  0.36543451  0.22825934  0.58062972    -0.66800
O73         O  0.31373274  0.24548586  0.42692261    -0.79000
C74         C  0.33286489  0.36405701  0.51511487     0.84400
O75         O  0.34294297  0.33085785  0.47443956    -0.66200
Ni76       Ni  0.37114400  0.15215503  0.41137359     1.27400
Ni77       Ni  0.39879481  0.22214505  0.52535693     1.26100
H78         H  0.41053432  0.29318333  0.50310613     0.38900
O79         O  0.09173875  0.85846750  0.56476017    -0.81000
O80         O  0.15076497  0.65044055  0.52182671    -0.65700
O81         O  0.13965187  0.78033267  0.52200993    -1.12300
C82         C  0.05920484  0.71175766  0.38658623     1.05900
O83         O  0.15470143  0.62051959  0.43605893    -0.78900
O84         O  0.15032321  0.68429237  0.38404449    -0.66500
Ni85       Ni  0.13512005  0.83384431  0.58490607     1.34900
C86         C  0.15215978  0.72883711  0.38727232     0.84600
O87         O  0.18239240  0.73334187  0.57413215    -0.79500
O88         O  0.17805705  0.81475060  0.61051211    -0.89700
C89         C  0.16200303  0.61868900  0.48092469     0.84200
O90         O  0.10855040  0.80214218  0.62373227    -0.67900
O91         O  0.07851344  0.67352366  0.37645748    -0.87200
C92         C  0.10107260  0.75792898  0.61739841     0.85000
C93         C  0.19266003  0.77384085  0.60616081     1.06600
H94         H  0.08725658  0.69122885  0.48973603     0.38400
O95         O  0.10800035  0.70048065  0.47459755    -1.09900
O96         O  0.13335122  0.76181424  0.41870755    -0.66500
Ni97       Ni  0.10129578  0.76550215  0.47468682     1.26300
O98         O  0.11161386  0.72249727  0.57870970    -0.66800
O99         O  0.06310354  0.74866779  0.42714456    -0.79000
C100        C  0.08427691  0.86286198  0.52100879     0.84400
O101        O  0.09469411  0.83159344  0.47920647    -0.66200
Ni102      Ni  0.11631587  0.65011047  0.40992278     1.27400
Ni103      Ni  0.14524636  0.71606050  0.52418961     1.26100
H104        H  0.16027138  0.78721299  0.50473050     0.38900
C105        C  0.46608231  0.00246356  0.46144437    -0.27700
C106        C  0.48693201  0.01306788  0.50628159     0.01900
C107        C  0.98294026  0.05717319  0.54447714     0.29900
C108        C  0.45902020  0.09305097  0.53895228    -0.19500
C109        C  0.43824312  0.08279860  0.49386000    -0.28900
C110        C  0.44188120  0.03669270  0.45504914     0.44000
C111        C  0.01263945  0.97491144  0.51122058     0.05200
O112        O  0.00460285  0.07019552  0.58713886    -0.57500
H113        H  0.45741148  0.12843825  0.56891848     0.18100
O114        O  0.42232568  0.02477022  0.41035862    -0.64200
H115        H  0.46859614  0.96736706  0.43117868     0.16600
C116        C  0.51142362  0.95879519  0.55382591     0.28800
C117        C  0.03564366  0.92241010  0.55738867    -0.25100
C118        C  0.06097206  0.90304142  0.51844826    -0.24300
C119        C  0.06241747  0.92071208  0.47612383     0.40300
C120        C  0.03835789  0.95626196  0.47276701    -0.26800
O121        O  0.48581724  0.97478074  0.59109277    -0.58700
H122        H  0.53378809  0.90997505  0.58987001     0.15900
O123        O  0.08710854  0.90339189  0.43766078    -0.60100
H124        H  0.03974866  0.96934147  0.43995194     0.14300
H125        H  0.40047097  0.00982819  0.41814780     0.46200
H126        H  0.46502720  0.95395729  0.57705030     0.41600
H127        H  0.10873293  0.92255704  0.45103961     0.45000
H128        H  0.98905260  0.07266514  0.61708722     0.36500
C129        C  0.27657802  0.47929747  0.54809899    -0.27700
C130        C  0.25917292  0.47241949  0.50092359     0.01900
C131        C  0.26673478  0.43062199  0.45822416     0.29900
C132        C  0.29127479  0.39630684  0.46309523    -0.19500
C133        C  0.30847744  0.40259215  0.51050921    -0.28900
C134        C  0.30116032  0.44501429  0.55311101     0.44000
C135        C  0.23382246  0.50958123  0.49611249     0.05200
O136        O  0.24994619  0.42270986  0.41165854    -0.57500
H137        H  0.29634329  0.36422920  0.42974907     0.18100
O138        O  0.31784182  0.45356152  0.59984487    -0.64200
H139        H  0.27138747  0.51172647  0.58102768     0.16600
C140        C  0.20429110  0.52343033  0.52909230     0.28800
C141        C  0.18094741  0.55908400  0.52395484    -0.25100
C142        C  0.18629560  0.58054599  0.48542582    -0.24300
C143        C  0.21593023  0.56676740  0.45262330     0.40300
C144        C  0.23937955  0.53156882  0.45813075    -0.26800
O145        O  0.19785065  0.50197183  0.56603639    -0.58700
H146        H  0.15836426  0.56948867  0.54960460     0.15900
O147        O  0.22276603  0.58842837  0.41594125    -0.60100
H148        H  0.26229516  0.52182970  0.43307291     0.14300
H149        H  0.34016021  0.47018214  0.59688165     0.46200
H150        H  0.18347095  0.47275579  0.54824768     0.41600
H151        H  0.23587094  0.61865821  0.43457039     0.45000
H152        H  0.22830020  0.40432605  0.41366548     0.36500
C153        C  0.53846548  0.70008691  0.68742859    -0.27700
C154        C  0.03835382  0.73304466  0.73737477     0.01900
C155        C  0.06092878  0.77353875  0.74851380     0.29900
C156        C  0.08128163  0.78075707  0.70905270    -0.19500
C157        C  0.07992580  0.74767933  0.65818172    -0.28900
C158        C  0.05903449  0.70538249  0.64791555     0.44000
C159        C  0.51376003  0.72968715  0.77708792     0.05200
O160        O  0.06373973  0.80557274  0.79821170    -0.57500
H161        H  0.09827709  0.81242338  0.71844659     0.18100
O162        O  0.55744675  0.67339914  0.59904212    -0.64200
H163        H  0.52121100  0.66871677  0.67849052     0.16600
C164        C  0.48900626  0.76699292  0.79907177     0.28800
C165        C  0.46574849  0.76314219  0.83693809    -0.25100
C166        C  0.46611417  0.72202728  0.85323001    -0.24300
C167        C  0.98922254  0.68339926  0.83024159     0.40300
C168        C  0.01286648  0.68694113  0.79209261    -0.26800
O169        O  0.48682852  0.80701606  0.78300904    -0.58700
H170        H  0.44645015  0.79187766  0.85243985     0.15900
O171        O  0.98948382  0.64232329  0.84453469    -0.60500
H172        H  0.03128130  0.65740250  0.77484354     0.14300
H173        H  0.07458422  0.64580197  0.59943841     0.46200
H174        H  0.47212334  0.79650631  0.75121005     0.41600
H175        H  0.00773541  0.64842163  0.87195829     0.45000
H176        H  0.05374110  0.83689671  0.79723977     0.36500
C177        C  0.49457421  0.76438458  0.31121634    -0.27700
C178        C  0.99020369  0.72326611  0.26581897     0.01900
C179        C  0.00778129  0.67916418  0.26054905     0.29900
C180        C  0.02881280  0.67504935  0.30114191    -0.19500
C181        C  0.03247039  0.71446718  0.34766519    -0.28900
C182        C  0.51521003  0.76033590  0.35206933     0.44000
C183        C  0.47114824  0.73209854  0.22148067     0.05200
O184        O  0.00640276  0.64107224  0.21468378    -0.57500
H185        H  0.04322599  0.64135216  0.29529591     0.18100
O186        O  0.51756790  0.79998906  0.39644928    -0.64200
H187        H  0.48119503  0.79858065  0.31553026     0.16600
C188        C  0.44060577  0.70468683  0.20243550     0.28800
C189        C  0.42039983  0.71426211  0.16392681    -0.25100
C190        C  0.42971126  0.75198212  0.14474632    -0.24300
C191        C  0.46095405  0.77851543  0.16296886     0.40300
C192        C  0.48128611  0.76851540  0.20107822    -0.26800
O193        O  0.42935260  0.67006636  0.22296022    -0.58700
H194        H  0.39636459  0.69373713  0.15104572     0.15900
O195        O  0.47146004  0.81511517  0.14483987    -0.60100
H196        H  0.00401607  0.78918178  0.21853777     0.14300
H197        H  0.53671846  0.82034030  0.38975381     0.46200
H198        H  0.41483832  0.68813697  0.25350409     0.41600
H199        H  0.48569864  0.79865684  0.11345004     0.45000
H200        H  0.99060291  0.61668119  0.22145184     0.36500
C201        C  0.32226786  0.74454045  0.75605398    -0.27700
C202        C  0.28952963  0.76841919  0.76707395     0.01900
C203        C  0.27725836  0.78543621  0.81881250     0.29900
C204        C  0.29730909  0.77696175  0.85820345    -0.19500
C205        C  0.32921119  0.75124856  0.84635231    -0.28900
C206        C  0.34206220  0.73597994  0.79524110     0.44000
C207        C  0.26747900  0.77148429  0.72348480     0.05200
O208        O  0.24468550  0.80709688  0.83054487    -0.57500
H209        H  0.28736575  0.78890720  0.89760950     0.18100
O210        O  0.37389224  0.71224663  0.78320980    -0.64200
H211        H  0.33226125  0.73178362  0.71667473     0.16600
C212        C  0.25248599  0.81581295  0.72327873     0.28800
C213        C  0.22950956  0.81641931  0.68347526    -0.25100
C214        C  0.22155939  0.77329458  0.64266249    -0.24300
C215        C  0.23889330  0.72955028  0.64094249     0.40300
C216        C  0.26124413  0.72891037  0.68138989    -0.26800
O217        O  0.25975071  0.85869560  0.76205427    -0.58700
H218        H  0.21714655  0.85072782  0.68555527     0.15900
O219        O  0.23323878  0.68671656  0.60118322    -0.60100
H220        H  0.27306279  0.69457491  0.68050668     0.14300
H221        H  0.39158203  0.73845549  0.78794878     0.46200
H222        H  0.28191595  0.87067962  0.75130132     0.41600
H223        H  0.25084129  0.68652852  0.57426553     0.45000
H224        H  0.24935402  0.84132433  0.85237462     0.36500
C225        C  0.19957670  0.80010194  0.31185360    -0.27700
C226        C  0.21824178  0.76252386  0.27532649     0.01900
C227        C  0.21702242  0.71503508  0.27789274     0.29900
C228        C  0.19643829  0.70517868  0.31562782    -0.19500
C229        C  0.17637702  0.74213818  0.35123376    -0.28900
C230        C  0.17853439  0.79027130  0.34942990     0.44000
C231        C  0.23983648  0.77289015  0.23524567     0.05200
O232        O  0.23676305  0.67828538  0.24448956    -0.57500
H233        H  0.19588802  0.66808385  0.31632213     0.18100
O234        O  0.16033629  0.82802439  0.38401164    -0.64200
H235        H  0.20087286  0.83701006  0.31065166     0.16600
C236        C  0.23200895  0.75110696  0.18225394     0.28800
C237        C  0.25527249  0.75630838  0.14469123    -0.25100
C238        C  0.28639844  0.78361980  0.15922971    -0.24300
C239        C  0.29347175  0.80679145  0.21256631     0.40300
C240        C  0.27008169  0.80163293  0.24997814    -0.26800
O241        O  0.20211169  0.72364444  0.16687305    -0.58700
H242        H  0.24914477  0.73838731  0.10409902     0.15900
O243        O  0.32393986  0.83270093  0.22879897    -0.60100
H244        H  0.27639742  0.81832195  0.29070638     0.14300
H245        H  0.13779610  0.83029295  0.36644408     0.46200
H246        H  0.18350004  0.74718238  0.16516078     0.41600
H247        H  0.34171385  0.80822666  0.23090241     0.45000
H248        H  0.21979944  0.65835742  0.21849375     0.36500
C249        C  0.52721703  0.23281760  0.78583164    -0.27700
C250        C  0.03594459  0.26768106  0.76732505     0.01900
C251        C  0.06120883  0.30148868  0.79544300     0.29900
C252        C  0.07944329  0.29310387  0.83639082    -0.19500
C253        C  0.07277627  0.25111572  0.84987141    -0.28900
C254        C  0.04653132  0.21825593  0.82260664     0.44000
C255        C  0.51835635  0.27836928  0.72436970     0.05200
O256        O  0.06862488  0.34236318  0.78270006    -0.57500
H257        H  0.09963928  0.31869822  0.85649909     0.18100
O258        O  0.53356884  0.18660670  0.84304805    -0.64200
H259        H  0.50544963  0.20943104  0.76730222     0.16600
C260        C  0.51790187  0.24157790  0.67560211     0.28800
C261        C  0.49505398  0.24546073  0.63686158    -0.25100
C262        C  0.47204875  0.28561931  0.64615566    -0.24300
C263        C  0.47427595  0.32392972  0.69420992     0.40300
C264        C  0.99304594  0.31533804  0.73421060    -0.26800
O265        O  0.53944558  0.20142546  0.66579198    -0.58700
H266        H  0.49439487  0.21590827  0.60017582     0.15900
O267        O  0.45217761  0.36360978  0.70569144    -0.60100
H268        H  0.99168421  0.34198759  0.77280475     0.14300
H269        H  0.51797006  0.20188994  0.87323247     0.46200
H270        H  0.52395977  0.17475310  0.66811199     0.41600
H271        H  0.46592505  0.38916792  0.69753938     0.45000
H272        H  0.08532946  0.33126340  0.75316008     0.36500
C273        C  0.44906137  0.29459158  0.30451142    -0.27700
C274        C  0.47825679  0.26439380  0.28511222     0.01900
C275        C  0.98660560  0.22871212  0.30779238     0.29900
C276        C  0.46220126  0.21505911  0.33822161    -0.19500
C277        C  0.43222537  0.24437649  0.35693913    -0.28900
C278        C  0.42598258  0.28478187  0.33990567     0.44000
C279        C  0.99914167  0.27227515  0.24443889     0.05200
O280        O  0.01769503  0.20328314  0.29450277    -0.57500
H281        H  0.46782188  0.18401653  0.35070104     0.18100
O282        O  0.39692966  0.31416178  0.35627007    -0.64200
H283        H  0.44355838  0.32500365  0.29092127     0.16600
C284        C  0.49570433  0.24275556  0.19211506     0.28800
C285        C  0.51722308  0.24924109  0.15340076    -0.25100
C286        C  0.04203829  0.28524671  0.16534092    -0.24300
C287        C  0.04326051  0.31903551  0.21638158     0.40300
C288        C  0.02159254  0.31259664  0.25523234    -0.26800
O289        O  0.47075307  0.20662709  0.17906356    -0.58700
H290        H  0.51329087  0.22546371  0.11387055     0.15900
O291        O  0.06577401  0.35808025  0.22911731    -0.60100
H292        H  0.02288587  0.33855529  0.29419287     0.14300
H293        H  0.37791556  0.29839378  0.33149546     0.46200
H294        H  0.44901457  0.22240327  0.17185447     0.41600
H295        H  0.08742321  0.34668355  0.24215994     0.45000
H296        H  0.01159571  0.17326923  0.26561095     0.36500
C297        C  0.22956432  0.25960073  0.78314177    -0.27700
C298        C  0.25679645  0.22529784  0.76536864     0.01900
C299        C  0.26023557  0.18732922  0.78672287     0.29900
C300        C  0.23716940  0.18516676  0.82634345    -0.19500
C301        C  0.21092196  0.22090552  0.84541488    -0.28900
C302        C  0.20695239  0.25786088  0.82284835     0.44000
C303        C  0.28243543  0.23262882  0.72738143     0.05200
O304        O  0.28719445  0.15400083  0.77130397    -0.57500
H305        H  0.24034417  0.15631043  0.84302149     0.18100
O306        O  0.17984918  0.29111885  0.83775999    -0.64200
H307        H  0.22602194  0.28840344  0.76643353     0.16600
C308        C  0.28943761  0.19654740  0.67923447     0.28800
C309        C  0.31215711  0.20671559  0.64348984    -0.25100
C310        C  0.32756742  0.25308973  0.65439975    -0.24300
C311        C  0.32050989  0.28900778  0.70282976     0.40300
C312        C  0.29846127  0.27843907  0.73867339    -0.26800
O313        O  0.27348908  0.15179851  0.66604795    -0.58700
H314        H  0.31700864  0.17855681  0.60659332     0.15900
O315        O  0.33580934  0.33425701  0.71637539    -0.60100
H316        H  0.29356640  0.30656957  0.77560914     0.14300
H317        H  0.19124981  0.32316473  0.85441518     0.46200
H318        H  0.25132601  0.15535962  0.64827430     0.41600
H319        H  0.31709283  0.35636826  0.71154504     0.45000
H320        H  0.27574555  0.12279784  0.75127484     0.36500
C321        C  0.24162949  0.25576159  0.31296673    -0.27700
C322        C  0.24757258  0.22651676  0.26147758     0.01900
C323        C  0.27357023  0.18986057  0.25056562     0.29900
C324        C  0.29419316  0.18408263  0.29083566    -0.19500
C325        C  0.28907634  0.21427021  0.34256517    -0.28900
C326        C  0.26171190  0.24958504  0.35338372     0.44000
C327        C  0.22699332  0.23578196  0.21956814     0.05200
O328        O  0.28039439  0.16150764  0.20033038    -0.57500
H329        H  0.31501074  0.15688959  0.28114239     0.18100
O330        O  0.25478855  0.27921419  0.40308893    -0.64200
H331        H  0.22138455  0.28379653  0.32182403     0.16600
C332        C  0.20241098  0.20166296  0.19018864     0.28800
C333        C  0.18156202  0.21272815  0.15312912    -0.25100
C334        C  0.18447325  0.25806155  0.14500283    -0.24300
C335        C  0.21011388  0.29157300  0.17362055     0.40300
C336        C  0.23081531  0.28037060  0.21069738    -0.26800
O337        O  0.19767904  0.15808336  0.19868852    -0.58700
H338        H  0.16215937  0.18628411  0.13207189     0.15900
O339        O  0.21451839  0.33608286  0.16710146    -0.60100
H340        H  0.24972616  0.30690356  0.23313445     0.14300
H341        H  0.23797886  0.26062444  0.41712851     0.46200
H342        H  0.18084672  0.16530916  0.22806617     0.41600
H343        H  0.23264268  0.33056183  0.13957388     0.45000
H344        H  0.26943434  0.12949436  0.19628962     0.36500
C345        C  0.50050120  0.05041294  0.96191110    -0.27700
C346        C  0.00409238  0.03646163  0.00836654     0.01900
C347        C  0.03038721  0.05528458  0.04617589     0.29900
C348        C  0.05530062  0.08859101  0.03971135    -0.19500
C349        C  0.05462093  0.10355356  0.99567032    -0.28900
C350        C  0.02760871  0.08566468  0.95868959     0.44000
C351        C  0.47655427  0.99700054  0.00914510     0.05200
O352        O  0.03324745  0.03906919  0.08788393    -0.57500
H353        H  0.07567879  0.10192912  0.06874549     0.18100
O354        O  0.52292577  0.09814337  0.91261168    -0.64200
H355        H  0.48092507  0.03554833  0.93196102     0.16600
C356        C  0.45309024  0.00437832  0.05102998     0.28800
C357        C  0.43145624  0.96612724  0.05362276    -0.25100
C358        C  0.43239568  0.92025156  0.01441524    -0.24300
C359        C  0.45553481  0.91338159  0.97209524     0.40300
C360        C  0.97830931  0.95326971  0.97070105    -0.26800
O361        O  0.45110038  0.04878344  0.08958771    -0.58700
H362        H  0.41388405  0.97242503  0.08646704     0.15900
O363        O  0.95763014  0.87174359  0.93294257    -0.60100
H364        H  0.99549792  0.94735593  0.93748561     0.14300
H365        H  0.01083217  0.13154410  0.92841297     0.46200
H366        H  0.43174480  0.06657564  0.07899252     0.41600
H367        H  0.47656964  0.85081665  0.94621929     0.45000
H368        H  0.02598267  0.06708108  0.11840707     0.36500
C369        C  0.20562025  0.50172109  0.03388972    -0.27700
C370        C  0.23064147  0.48843128  0.99362259     0.01900
C371        C  0.23134678  0.44001343  0.95940401     0.29900
C372        C  0.20756498  0.40581386  0.96611706    -0.19500
C373        C  0.18293575  0.41880345  0.00683227    -0.28900
C374        C  0.18191333  0.46739435  0.04067591     0.44000
C375        C  0.25695429  0.52482605  0.98963145     0.05200
O376        O  0.25692396  0.42491984  0.92187897    -0.57500
H377        H  0.20955743  0.36833627  0.94073287     0.18100
O378        O  0.15823981  0.48161622  0.08086870    -0.64200
H379        H  0.20470162  0.53884697  0.06050744     0.16600
C380        C  0.26198750  0.53508556  0.94316945     0.28800
C381        C  0.28690869  0.56984886  0.94091124    -0.25100
C382        C  0.30672519  0.59583251  0.98489741    -0.24300
C383        C  0.30167317  0.58526335  0.03135715     0.40300
C384        C  0.27699016  0.55018663  0.03336737    -0.26800
O385        O  0.24205809  0.51231796  0.90009151    -0.58700
H386        H  0.28996874  0.57739898  0.90485711     0.15900
O387        O  0.32047229  0.60913897  0.07527629    -0.60100
H388        H  0.27356596  0.54260014  0.06935936     0.14300
H389        H  0.13656655  0.49085775  0.06590056     0.46200
H390        H  0.22053960  0.53273258  0.90377376     0.41600
H391        H  0.34176090  0.58871919  0.07371351     0.45000
H392        H  0.24419224  0.41562056  0.88828587     0.36500
O393        O  0.58669859  0.13750647  0.94246409    -0.81000
O394        O  0.65716634  0.34037054  0.97606665    -0.65700
O395        O  0.63766998  0.21298653  0.97870167    -1.12300
C396        C  0.56784541  0.28796248  0.12331489     1.05900
O397        O  0.65623385  0.37939295  0.06131971    -0.78900
O398        O  0.66199714  0.30706536  0.10415444    -0.66500
Ni399      Ni  0.62799466  0.16063711  0.91555708     1.34900
C400        C  0.65892468  0.26440333  0.10683958     0.84600
O401        O  0.68260123  0.25454967  0.92355540    -0.79500
O402        O  0.66800492  0.17685273  0.88026247    -0.89700
C403        C  0.66488042  0.37661401  0.01535116     0.84200
O404        O  0.59759161  0.19616088  0.88547183    -0.67900
O405        O  0.59210238  0.32011208  0.13337779    -0.87200
C406        C  0.59561269  0.24090855  0.88945073     0.85000
C407        C  0.68603835  0.21523201  0.88553761     1.06600
H408        H  0.59116733  0.30977001  0.01399625     0.38400
O409        O  0.61129315  0.29765797  0.02762638    -1.09900
O410        O  0.63428848  0.23549862  0.08382003    -0.66500
Ni411      Ni  0.60100651  0.23395099  0.02914969     1.26300
O412        O  0.61310977  0.27423667  0.92257826    -0.66800
O413        O  0.56437136  0.25652890  0.07860899    -0.79000
C414        C  0.57786624  0.13835735  0.98774273     0.84400
O415        O  0.59038712  0.16966804  0.02783213    -0.66200
Ni416      Ni  0.62401195  0.34553245  0.09264360     1.27400
Ni417      Ni  0.64728810  0.27642602  0.97570788     1.26100
H418        H  0.65797205  0.20287307  0.99430716     0.38900
O419        O  0.83896262  0.63965179  0.93967528    -0.81000
O420        O  0.90380259  0.84577825  0.98060986    -0.65700
O421        O  0.88806380  0.71637458  0.98083259    -1.12300
C422        C  0.81285407  0.78744602  0.12091398     1.05900
O423        O  0.90377602  0.88100626  0.06625559    -0.78900
O424        O  0.90647971  0.81048872  0.11104726    -0.66500
Ni425      Ni  0.88197299  0.66303860  0.91758040     1.34900
C426        C  0.90528827  0.76680405  0.11110720     0.84600
O427        O  0.93146990  0.76078524  0.92723793    -0.79500
O428        O  0.92430030  0.68003123  0.88842958    -0.89700
C429        C  0.91232636  0.88059527  0.02100436     0.84200
O430        O  0.85469772  0.69662179  0.88133318    -0.67900
O431        O  0.83539508  0.82186478  0.13175876    -0.87200
C432        C  0.84910895  0.74139814  0.88782716     0.85000
C433        C  0.93938877  0.72040937  0.89277512     1.06600
H434        H  0.83837887  0.80990347  0.01520239     0.38400
O435        O  0.85888649  0.79877228  0.02945963    -1.09900
O436        O  0.88257726  0.73618893  0.08497058    -0.66500
Ni437      Ni  0.85016597  0.73394641  0.02926532     1.26300
O438        O  0.86135784  0.77635295  0.92545380    -0.66800
O439        O  0.81229599  0.75337550  0.07746229    -0.79000
C440        C  0.83085582  0.63670088  0.98380245     0.84400
O441        O  0.84150284  0.66829187  0.02522048    -0.66200
Ni442      Ni  0.86944898  0.84738204  0.09460937     1.27400
Ni443      Ni  0.89562107  0.78049901  0.97877949     1.26100
H444        H  0.90845416  0.70799248  0.99761522     0.38900
O445        O  0.83930814  0.35992276  0.55912936    -0.81000
O446        O  0.90701651  0.15567230  0.52472526    -0.65700
O447        O  0.88885756  0.28288946  0.51995795    -1.12300
C448        C  0.81460166  0.20878558  0.38089706     1.05900
O449        O  0.90533685  0.11670033  0.43966738    -0.78900
O450        O  0.90909646  0.18667070  0.39404240    -0.66500
Ni451      Ni  0.88209539  0.33702922  0.58233584     1.34900
C452        C  0.90680757  0.22956941  0.39172346     0.84600
O453        O  0.93477667  0.24119411  0.57388496    -0.79500
O454        O  0.92424335  0.32102020  0.61260194    -0.89700
C455        C  0.91492960  0.11947456  0.48532912     0.84200
O456        O  0.85418119  0.30437556  0.61859960    -0.67900
O457        O  0.83824524  0.17541633  0.37016079    -0.87200
C458        C  0.84974602  0.25986457  0.61426462     0.85000
C459        C  0.94160804  0.28212846  0.60802682     1.06600
H460        H  0.84061673  0.18825725  0.48921785     0.38400
O461        O  0.86060342  0.19930782  0.47424852    -1.09900
O462        O  0.88289180  0.25957822  0.41571446    -0.66500
Ni463      Ni  0.85076502  0.26313666  0.47220567     1.26300
O464        O  0.86427444  0.22480899  0.57883698    -0.66800
O465        O  0.81281360  0.24171200  0.42492167    -0.79000
C466        C  0.83025662  0.36050537  0.51448301     0.84400
O467        O  0.84070961  0.32779146  0.47364792    -0.66200
Ni468      Ni  0.87162503  0.15008878  0.40939784     1.27400
Ni469      Ni  0.89781660  0.21972234  0.52410777     1.26100
H470        H  0.90885929  0.29127430  0.50260802     0.38900
O471        O  0.59221937  0.85986761  0.56472218    -0.81000
O472        O  0.65119138  0.65125851  0.52219330    -0.65700
O473        O  0.63972156  0.78101966  0.52159216    -1.12300
C474        C  0.55983842  0.71320500  0.38618809     1.05900
O475        O  0.65369923  0.61968067  0.43637903    -0.78900
O476        O  0.65192435  0.68561772  0.38668818    -0.66500
Ni477      Ni  0.63556640  0.83475267  0.58452187     1.34900
C478        C  0.65272971  0.72988402  0.38861111     0.84600
O479        O  0.68284370  0.73412458  0.57350186    -0.79500
O480        O  0.67849781  0.81544951  0.61010503    -0.89700
C481        C  0.66145755  0.61846531  0.48134774     0.84200
O482        O  0.60889006  0.80334818  0.62353274    -0.67900
O483        O  0.58005738  0.67581582  0.37527867    -0.87200
C484        C  0.60147235  0.75915946  0.61743209     0.85000
C485        C  0.69310285  0.77451684  0.60565267     1.06600
H486        H  0.58738580  0.69135434  0.48992379     0.38400
O487        O  0.60799429  0.70092265  0.47476120    -1.09900
O488        O  0.63257889  0.76227622  0.41826680    -0.66500
Ni489      Ni  0.60098616  0.76598071  0.47488453     1.26300
O490        O  0.61209267  0.72358722  0.57891871    -0.66800
O491        O  0.56241239  0.74890206  0.42811797    -0.79000
C492        C  0.58421809  0.86374815  0.52091668     0.84400
O493        O  0.59410791  0.83200945  0.47910031    -0.66200
Ni494      Ni  0.61662765  0.65107631  0.40974298     1.27400
Ni495      Ni  0.64549231  0.71676936  0.52400401     1.26100
H496        H  0.66017822  0.78781503  0.50392991     0.38900
C497        C  0.96594535  0.00040634  0.46082747    -0.27700
C498        C  0.98671021  0.01135309  0.50576805     0.01900
C499        C  0.48328120  0.05881611  0.54519411     0.29900
C500        C  0.95861647  0.09116879  0.53794809    -0.19500
C501        C  0.93792663  0.08060178  0.49274057    -0.28900
C502        C  0.94170180  0.03442354  0.45411349     0.44000
C503        C  0.51275056  0.97630779  0.51147726     0.05200
O504        O  0.50497263  0.07152009  0.58782028    -0.57500
H505        H  0.95692787  0.12664632  0.56775308     0.18100
O506        O  0.92229017  0.02226963  0.40927837    -0.64200
H507        H  0.96859384  0.96523947  0.43070973     0.16600
C508        C  0.01132902  0.95753613  0.55365719     0.28800
C509        C  0.53565108  0.92347871  0.55740208    -0.25100
C510        C  0.56092726  0.90402468  0.51840200    -0.24300
C511        C  0.56236877  0.92176875  0.47612385     0.40300
C512        C  0.53838715  0.95750374  0.47290575    -0.26800
O513        O  0.98565033  0.97344161  0.59082591    -0.58700
H514        H  0.03379238  0.90896540  0.58990036     0.15900
O515        O  0.58703625  0.90441735  0.43763362    -0.60100
H516        H  0.53980500  0.97064727  0.44013835     0.14300
H517        H  0.90076510  0.00636485  0.41663186     0.46200
H518        H  0.96491730  0.95251509  0.57672981     0.41600
H519        H  0.60867139  0.92356900  0.45098193     0.45000
H520        H  0.48941572  0.07398510  0.61776131     0.36500
C521        C  0.77526144  0.47684959  0.54708845    -0.27700
C522        C  0.75570535  0.46847457  0.50137084     0.01900
C523        C  0.76105130  0.42479781  0.45989120     0.29900
C524        C  0.78578705  0.39048450  0.46433910    -0.19500
C525        C  0.80532550  0.39857677  0.51019106    -0.28900
C526        C  0.79993891  0.44248885  0.55171420     0.44000
C527        C  0.73086041  0.50629454  0.49644263     0.05200
O528        O  0.74200243  0.41513502  0.41491036    -0.57500
H529        H  0.78921377  0.35703374  0.43199648     0.18100
O530        O  0.81884661  0.45257229  0.59685703    -0.64200
H531        H  0.77183894  0.51061543  0.57903461     0.16600
C532        C  0.70369985  0.52507398  0.53287985     0.28800
C533        C  0.68114079  0.56157662  0.52768960    -0.25100
C534        C  0.68489170  0.57924873  0.48588920    -0.24300
C535        C  0.71223134  0.56057101  0.44968225     0.40300
C536        C  0.73484326  0.52443439  0.45511960    -0.26800
O537        O  0.69884293  0.50775535  0.57343457    -0.58700
H538        H  0.66042122  0.57569766  0.55605234     0.15900
O539        O  0.71778903  0.57835541  0.40960334    -0.60100
H540        H  0.75603425  0.51108978  0.42738411     0.14300
H541        H  0.84072133  0.46858028  0.59084300     0.46200
H542        H  0.68268055  0.47960310  0.55997067     0.41600
H543        H  0.73276385  0.60762990  0.42436036     0.45000
H544        H  0.72042916  0.39831054  0.42054382     0.36500
C545        C  0.03816198  0.69861127  0.68732879    -0.27700
C546        C  0.53887010  0.73431828  0.73758124     0.01900
C547        C  0.56149066  0.77477380  0.74871250     0.29900
C548        C  0.58177372  0.78204986  0.70918845    -0.19500
C549        C  0.58028721  0.74906569  0.65827153    -0.28900
C550        C  0.55924013  0.70692008  0.64796427     0.44000
C551        C  0.01308876  0.72866474  0.77679072     0.05200
O552        O  0.56445956  0.80665933  0.79845513    -0.57500
H553        H  0.59884892  0.81363505  0.71856943     0.18100
O554        O  0.05748126  0.67165696  0.59908663    -0.64200
H555        H  0.02098644  0.66716171  0.67841776     0.16600
C556        C  0.98848302  0.76621695  0.79863720     0.28800
C557        C  0.96537044  0.76293294  0.83689643    -0.25100
C558        C  0.96566233  0.72207160  0.85358629    -0.24300
C559        C  0.48992912  0.68369328  0.82986013     0.40300
C560        C  0.51365341  0.68775125  0.79202606    -0.26800
O561        O  0.98637331  0.80599387  0.78215461    -0.58700
H562        H  0.94626604  0.79193119  0.85244832     0.15900
O563        O  0.49032121  0.64239929  0.84375355    -0.60500
H564        H  0.53218443  0.65839435  0.77466277     0.14300
H565        H  0.57455425  0.64744281  0.59905355     0.46200
H566        H  0.97154835  0.79534869  0.75048214     0.41600
H567        H  0.50847214  0.64847866  0.87131418     0.45000
H568        H  0.55432260  0.83798456  0.79771557     0.36500
C569        C  0.99245183  0.76186768  0.31277439    -0.27700
C570        C  0.49152628  0.72527204  0.26481036     0.01900
C571        C  0.50854079  0.68087239  0.25999745     0.29900
C572        C  0.52948914  0.67672503  0.30066053    -0.19500
C573        C  0.53364429  0.71641989  0.34680496    -0.28900
C574        C  0.01312968  0.75782285  0.35358493     0.44000
C575        C  0.97037959  0.73058299  0.22228615     0.05200
O576        O  0.50658949  0.64238196  0.21452462    -0.57500
H577        H  0.54329152  0.64265432  0.29529566     0.18100
O578        O  0.01455377  0.79688977  0.39863583    -0.64200
H579        H  0.97850879  0.79574570  0.31749575     0.16600
C580        C  0.94017546  0.70296375  0.20183815     0.28800
C581        C  0.92037601  0.71327955  0.16337964    -0.25100
C582        C  0.92979928  0.75187170  0.14557053    -0.24300
C583        C  0.96082306  0.77845108  0.16504669     0.40300
C584        C  0.98070895  0.76776593  0.20314734    -0.26800
O585        O  0.92883992  0.66738741  0.22092130    -0.58700
H586        H  0.89655172  0.69257904  0.14945552     0.15900
O587        O  0.97150892  0.81581136  0.14824400    -0.60100
H588        H  0.50480741  0.78982276  0.21542895     0.14300
H589        H  0.03253065  0.81905209  0.39233875     0.46200
H590        H  0.91398213  0.68465824  0.25136810     0.41600
H591        H  0.98649167  0.80012388  0.11745747     0.45000
H592        H  0.49049516  0.61860742  0.22188537     0.36500
C593        C  0.82190801  0.74422532  0.75650410    -0.27700
C594        C  0.78940067  0.76873608  0.76727520     0.01900
C595        C  0.77733395  0.78687898  0.81908535     0.29900
C596        C  0.79740449  0.77906266  0.85885887    -0.19500
C597        C  0.82915636  0.75292136  0.84734433    -0.28900
C598        C  0.84173944  0.73636582  0.79605986     0.44000
C599        C  0.76746667  0.77169212  0.72347455     0.05200
O600        O  0.74492594  0.80908262  0.83059798    -0.57500
H601        H  0.78757198  0.79183880  0.89832008     0.18100
O602        O  0.87334939  0.71201387  0.78421414    -0.64200
H603        H  0.83173528  0.73053365  0.71706296     0.16600
C604        C  0.75325902  0.81621702  0.72249534     0.28800
C605        C  0.73048509  0.81694235  0.68248670    -0.25100
C606        C  0.72194429  0.77370994  0.64221059    -0.24300
C607        C  0.73851667  0.72964468  0.64123302     0.40300
C608        C  0.76067550  0.72892787  0.68188215    -0.26800
O609        O  0.76112355  0.85921644  0.76071050    -0.58700
H610        H  0.71873955  0.85146612  0.68398246     0.15900
O611        O  0.73223141  0.68659249  0.60208191    -0.60100
H612        H  0.77190386  0.69442187  0.68155903     0.14300
H613        H  0.89125051  0.73780423  0.78804136     0.46200
H614        H  0.78360750  0.87018503  0.74972632     0.41600
H615        H  0.74998922  0.68531852  0.57500847     0.45000
H616        H  0.74985950  0.84346103  0.85165395     0.36500
C617        C  0.70102348  0.80186695  0.31474417    -0.27700
C618        C  0.71948791  0.76433817  0.27782359     0.01900
C619        C  0.71794750  0.71665410  0.27980687     0.29900
C620        C  0.69715824  0.70655059  0.31719849    -0.19500
C621        C  0.67721630  0.74344651  0.35306244    -0.28900
C622        C  0.67979258  0.79178951  0.35200961     0.44000
C623        C  0.74098137  0.77485036  0.23768054     0.05200
O624        O  0.73754060  0.67991545  0.24611519    -0.57500
H625        H  0.69628980  0.66928796  0.31732812     0.18100
O626        O  0.66193774  0.82952487  0.38717095    -0.64200
H627        H  0.70258914  0.83892636  0.31406058     0.16600
C628        C  0.73305834  0.75306467  0.18471780     0.28800
C629        C  0.75615365  0.75841422  0.14704069    -0.25100
C630        C  0.78721641  0.78592363  0.16137445    -0.24300
C631        C  0.79435967  0.80917653  0.21468931     0.40300
C632        C  0.77113857  0.80383126  0.25224402    -0.26800
O633        O  0.70320744  0.72547101  0.16945513    -0.58700
H634        H  0.74993907  0.74042083  0.10649243     0.15900
O635        O  0.82471499  0.83540329  0.23076467    -0.60100
H636        H  0.77751843  0.82059105  0.29293905     0.14300
H637        H  0.63976590  0.83318529  0.36945573     0.46200
H638        H  0.68446107  0.74897356  0.16814213     0.41600
H639        H  0.84260609  0.81116938  0.23312345     0.45000
H640        H  0.72044555  0.65994889  0.22037495     0.36500
C641        C  0.02857421  0.22655348  0.78159218    -0.27700
C642        C  0.53750988  0.27104860  0.76838251     0.01900
C643        C  0.56503281  0.30213505  0.79387425     0.29900
C644        C  0.58275168  0.29352328  0.83514392    -0.19500
C645        C  0.57329000  0.25401148  0.85146169    -0.28900
C646        C  0.54462579  0.22435496  0.82714417     0.44000
C647        C  0.01598851  0.27535900  0.72412891     0.05200
O648        O  0.57523853  0.34031529  0.77808746    -0.57500
H649        H  0.60477401  0.31665569  0.85305992     0.18100
O650        O  0.03823067  0.17776470  0.83554784    -0.64200
H651        H  0.00854232  0.20090519  0.76100514     0.16600
C652        C  0.01716140  0.24062620  0.67408624     0.28800
C653        C  0.99438402  0.24501996  0.63549428    -0.25100
C654        C  0.96983890  0.28356954  0.64619163    -0.24300
C655        C  0.97004402  0.31969083  0.69584935     0.40300
C656        C  0.49729822  0.31998244  0.73274729    -0.26800
O657        O  0.04034097  0.20208569  0.66277239    -0.58700
H658        H  0.99507063  0.21708378  0.59764540     0.15900
O659        O  0.94593885  0.35715577  0.70884889    -0.60100
H660        H  0.49731578  0.34836027  0.77032140     0.14300
H661        H  0.02132246  0.18949391  0.86477140     0.46200
H662        H  0.02593883  0.17354430  0.66251055     0.41600
H663        H  0.95859028  0.38538389  0.70446595     0.45000
H664        H  0.59123839  0.32573997  0.74822019     0.36500
C665        C  0.94610937  0.29125247  0.30118823    -0.27700
C666        C  0.97744104  0.26471057  0.28596182     0.01900
C667        C  0.48497124  0.22473110  0.30250090     0.29900
C668        C  0.96398780  0.21869633  0.34349690    -0.19500
C669        C  0.93191575  0.24418152  0.35785775    -0.28900
C670        C  0.92329395  0.28114799  0.33662394     0.44000
C671        C  0.50022196  0.27229774  0.24396367     0.05200
O672        O  0.51384067  0.19529681  0.28481661    -0.57500
H673        H  0.97136130  0.19039684  0.35939686     0.18100
O674        O  0.89207802  0.30645522  0.34861919    -0.64200
H675        H  0.93876021  0.31878880  0.28418032     0.16600
C676        C  0.99754902  0.23885903  0.19385888     0.28800
C677        C  0.01871595  0.24545706  0.15485735    -0.25100
C678        C  0.54386526  0.28495860  0.16539340    -0.24300
C679        C  0.54830181  0.31459953  0.21781055     0.40300
C680        C  0.52623076  0.30847067  0.25643388    -0.26800
O681        O  0.97580149  0.19903218  0.18241535    -0.58700
H682        H  0.01719271  0.21863667  0.11640510     0.15900
O683        O  0.57439198  0.34906969  0.23206830    -0.60100
H684        H  0.52998236  0.33121475  0.29642349     0.14300
H685        H  0.87460141  0.28622186  0.32375047     0.46200
H686        H  0.95306538  0.21005520  0.17198393     0.41600
H687        H  0.59493961  0.33210322  0.24102185     0.45000
H688        H  0.50532095  0.16827955  0.25433984     0.36500
C689        C  0.73010609  0.25667032  0.78336486    -0.27700
C690        C  0.75590761  0.22063578  0.76331312     0.01900
C691        C  0.75790683  0.18096519  0.78229474     0.29900
C692        C  0.73490021  0.17878984  0.82196422    -0.19500
C693        C  0.71018390  0.21619249  0.84339077    -0.28900
C694        C  0.70756264  0.25487355  0.82310203     0.44000
C695        C  0.78168973  0.22775707  0.72546503     0.05200
O696        O  0.78348655  0.14584776  0.76452838    -0.57500
H697        H  0.73698432  0.14861619  0.83688580     0.18100
O698        O  0.68185131  0.28997574  0.84039158    -0.64200
H699        H  0.72768471  0.28685496  0.76847077     0.16600
C700        C  0.78662950  0.19316091  0.67576138     0.28800
C701        C  0.80939072  0.20347077  0.64016672    -0.25100
C702        C  0.82681229  0.24862443  0.65289994    -0.24300
C703        C  0.82205094  0.28289093  0.70296801     0.40300
C704        C  0.79992823  0.27213530  0.73860570    -0.26800
O705        O  0.76855956  0.14992084  0.66097178    -0.58700
H706        H  0.81259251  0.17662008  0.60197676     0.15900
O707        O  0.83973508  0.32650496  0.71817650    -0.60100
H708        H  0.79666968  0.29901929  0.77679319     0.14300
H709        H  0.69454030  0.32072557  0.85833227     0.46200
H710        H  0.74657185  0.15646571  0.64463274     0.41600
H711        H  0.82201240  0.35127433  0.71673418     0.45000
H712        H  0.77081908  0.11616119  0.74322832     0.36500
C713        C  0.73794630  0.24558490  0.31091753    -0.27700
C714        C  0.74669713  0.22117210  0.25894887     0.01900
C715        C  0.77661531  0.19076831  0.24721671     0.29900
C716        C  0.79775851  0.18570455  0.28725256    -0.19500
C717        C  0.78967351  0.21103403  0.33957471    -0.28900
C718        C  0.75909871  0.24085355  0.35108001     0.44000
C719        C  0.72501329  0.22893986  0.21727306     0.05200
O720        O  0.78573391  0.16652165  0.19664853    -0.57500
H721        H  0.82111583  0.16289991  0.27712711     0.18100
O722        O  0.74992662  0.26641784  0.40130435    -0.64200
H723        H  0.71498007  0.26924458  0.32034726     0.16600
C724        C  0.69008127  0.21204762  0.20900314     0.28800
C725        C  0.66951693  0.22153211  0.17075243    -0.25100
C726        C  0.68298999  0.24921881  0.14141722    -0.24300
C727        C  0.71821257  0.26547412  0.14924522     0.40300
C728        C  0.73900908  0.25499516  0.18672999    -0.26800
O729        O  0.67590799  0.18612047  0.23805589    -0.58700
H730        H  0.64243045  0.20901402  0.16563215     0.15900
O731        O  0.73241220  0.29219050  0.12105232    -0.60100
H732        H  0.76588687  0.26825430  0.19290316     0.14300
H733        H  0.73506872  0.24378822  0.41269767     0.46200
H734        H  0.66218381  0.21029033  0.26577821     0.41600
H735        H  0.74042909  0.26773988  0.08810821     0.45000
H736        H  0.77277220  0.13518575  0.18710885     0.36500
C737        C  0.00291990  0.05226799  0.96503600    -0.27700
C738        C  0.50107625  0.03573052  0.00598643     0.01900
C739        C  0.52654138  0.05577800  0.04470606     0.29900
C740        C  0.55126076  0.08934140  0.03851468    -0.19500
C741        C  0.55120856  0.10324271  0.99380665    -0.28900
C742        C  0.52503015  0.08405261  0.95579484     0.44000
C743        C  0.97923963  0.99788646  0.01150440     0.05200
O744        O  0.52884063  0.04045919  0.08708631    -0.57500
H745        H  0.57104611  0.10365195  0.06827043     0.18100
O746        O  0.02479258  0.10087575  0.91631555    -0.64200
H747        H  0.98270669  0.03849746  0.93581968     0.16600
C748        C  0.95665245  0.00469800  0.05429295     0.28800
C749        C  0.93458946  0.96665486  0.05650845    -0.25100
C750        C  0.93413687  0.92149499  0.01605983    -0.24300
C751        C  0.95630071  0.91529226  0.97279291     0.40300
C752        C  0.47706595  0.95158803  0.96957878    -0.26800
O753        O  0.95586529  0.04838156  0.09407447    -0.58700
H754        H  0.91776769  0.97258078  0.09009250     0.15900
O755        O  0.45835022  0.86897591  0.93378937    -0.60100
H756        H  0.49504609  0.94526851  0.93717185     0.14300
H757        H  0.50878028  0.12867997  0.92350520     0.46200
H758        H  0.93638756  0.06722508  0.08532837     0.41600
H759        H  0.97606322  0.85228668  0.94312724     0.45000
H760        H  0.52076632  0.06858035  0.11691063     0.36500
C761        C  0.70677017  0.49977430  0.03307168    -0.27700
C762        C  0.73305109  0.48686371  0.99458437     0.01900
C763        C  0.73566013  0.43799782  0.96184706     0.29900
C764        C  0.71248786  0.40300882  0.96829020    -0.19500
C765        C  0.68663160  0.41568587  0.00730578    -0.28900
C766        C  0.68368000  0.46467248  0.03958880     0.44000
C767        C  0.75858671  0.52428299  0.99093385     0.05200
O768        O  0.76243042  0.42344554  0.92616760    -0.57500
H769        H  0.71583932  0.36530971  0.94408768     0.18100
O770        O  0.65860921  0.47858436  0.07789321    -0.64200
H771        H  0.70434330  0.53723914  0.05847177     0.16600
C772        C  0.76460588  0.53308668  0.94390537     0.28800
C773        C  0.78878233  0.56879982  0.94193010    -0.25100
C774        C  0.80687068  0.59717107  0.98668930    -0.24300
C775        C  0.80078033  0.58812626  0.03378106     0.40300
C776        C  0.77683930  0.55210478  0.03552677    -0.26800
O777        O  0.74637112  0.50787469  0.89988473    -0.58700
H778        H  0.79266951  0.57504528  0.90533162     0.15900
O779        O  0.81776092  0.61444685  0.07858097    -0.60100
H780        H  0.77260677  0.54571033  0.07199802     0.14300
H781        H  0.63718526  0.48580790  0.06079519     0.46200
H782        H  0.72458576  0.52718805  0.90084416     0.41600
H783        H  0.83967013  0.59585124  0.07921802     0.45000
H784        H  0.75072738  0.41233426  0.89175866     0.36500
loop_ 
_geom_bond_atom_site_label_1 
_geom_bond_atom_site_label_2 
_geom_bond_distance 
_geom_bond_site_symmetry_2 
_ccdc_geom_bond_type 
O1           Ni7   1.947       .  S
O1           C22   1.275       .  A
O2          Ni25   1.892       .  S
O2           C11   1.265   1_556  A
O3           Ni7   1.918       .  S
O3          Ni25   1.902       .  S
O3          Ni19   1.905   1_556  S
O3           H26   0.969       .  S
C4           O21   1.268       .  A
C4           O13   1.276       .  A
C4          C286   1.491       .  S
O5          Ni24   1.939       .  S
O5           C11   1.275       .  A
O6          Ni24   1.903       .  S
O6            C8   1.270       .  A
Ni7          O10   1.939       .  S
Ni7          O12   1.904       .  S
C8           O18   1.277       .  A
C8          C334   1.491       .  S
O9          Ni25   1.908       .  S
O9           C15   1.273       .  A
O10          C15   1.278       .  A
C11         C373   1.480       .  S
O12          C14   1.269       .  A
O13         Ni24   1.943       .  S
C14          O20   1.272       .  A
C14         C253   1.481       .  S
C15         C301   1.480       .  S
H16          O17   0.963       .  S
O17         Ni25   1.916   1_554  S
O17         Ni19   1.907       .  S
O17         Ni24   1.921       .  S
O18         Ni19   1.942       .  S
Ni19         O23   1.901       .  S
Ni19         O21   1.896       .  S
O20         Ni25   1.925       .  S
C22          O23   1.264   1_556  A
C22         C349   1.489       .  S
O27         Ni33   1.941       .  S
O27          C48   1.274       .  A
O28         Ni51   1.900       .  S
O28          C37   1.267   1_556  A
O29         Ni33   1.917       .  S
O29         Ni51   1.901       .  S
O29         Ni45   1.904   1_556  S
O29          H52   0.968       .  S
C30          O47   1.270       .  A
C30          O39   1.275       .  A
C30         C238   1.482       .  S
O31         Ni50   1.936       .  S
O31          C37   1.273       .  A
O32         Ni50   1.902       .  S
O32          C34   1.269       .  A
Ni33         O36   1.930       .  S
Ni33         O38   1.904       .  S
C34          O44   1.276       .  A
C34         C190   1.482       .  S
O35         Ni51   1.903       .  S
O35          C41   1.273       .  A
O36          C41   1.276       .  A
C37         C358   1.487       .  S
O38          C40   1.269       .  A
O39         Ni50   1.934       .  S
C40          O46   1.270       .  A
C40         C205   1.463       .  S
C41         C166   1.476       .  S
H42          O43   0.970       .  S
O43         Ni51   1.910   1_554  S
O43         Ni45   1.909       .  S
O43         Ni50   1.914       .  S
O44         Ni45   1.940       .  S
Ni45         O49   1.901       .  S
Ni45         O47   1.903       .  S
O46         Ni51   1.920       .  S
C48          O49   1.266   1_556  A
C48         C382   1.488       .  S
O53         Ni59   1.933       .  S
O53          C74   1.271       .  A
O54         Ni77   1.897       .  S
O54          C63   1.267       .  A
O55         Ni59   1.916       .  S
O55         Ni77   1.903       .  S
O55         Ni71   1.903       .  S
O55          H78   0.968       .  S
C56          O73   1.267       .  A
C56          O65   1.278       .  A
C56         C325   1.490       .  S
O57         Ni76   1.943       .  S
O57          C63   1.276       .  A
O58         Ni76   1.905       .  S
O58          C60   1.270       .  A
Ni59         O62   1.922       .  S
Ni59         O64   1.905       .  S
C60          O70   1.276       .  A
C60         C277   1.488       .  S
O61         Ni77   1.910       .  S
O61          C67   1.273       .  A
O62          C67   1.274       .  A
C63         C109   1.489       .  S
O64          C66   1.269       .  A
O65         Ni76   1.948       .  S
C66          O72   1.274       .  A
C66         C310   1.489       .  S
C67         C262   1.486       .  S
H68          O69   0.966       .  S
O69         Ni77   1.915       .  S
O69         Ni71   1.907       .  S
O69         Ni76   1.919       .  S
O70         Ni71   1.941       .  S
Ni71         O75   1.900       .  S
Ni71         O73   1.896       .  S
O72         Ni77   1.932       .  S
C74          O75   1.265       .  A
C74         C133   1.485       .  S
O79         Ni85   1.940       .  S
O79         C100   1.274       .  A
O80        Ni103   1.895       .  S
O80          C89   1.264       .  A
O81         Ni85   1.906       .  S
O81        Ni103   1.897       .  S
O81         Ni97   1.898       .  S
O81         H104   0.968       .  S
C82          O99   1.271       .  A
C82          O91   1.279       .  A
C82         C181   1.488       .  S
O83        Ni102   1.938       .  S
O83          C89   1.274       .  A
O84        Ni102   1.902       .  S
O84          C86   1.269       .  A
Ni85         O88   1.921       .  S
Ni85         O90   1.907       .  S
C86          O96   1.271       .  A
C86         C229   1.488       .  S
O87        Ni103   1.909       .  S
O87          C93   1.274       .  A
O88          C93   1.277       .  A
C89         C142   1.473       .  S
O90          C92   1.270       .  A
O91        Ni102   1.936       .  S
C92          O98   1.271       .  A
C92         C157   1.481       .  S
C93         C214   1.484       .  S
H94          O95   0.968       .  S
O95        Ni103   1.905       .  S
O95         Ni97   1.902       .  S
O95        Ni102   1.911       .  S
O96         Ni97   1.929       .  S
Ni97        O101   1.897       .  S
Ni97         O99   1.898       .  S
O98        Ni103   1.922       .  S
C100        O101   1.264       .  A
C100        C118   1.480       .  S
C105        C106   1.404       .  A
C105        C110   1.402       .  A
C105        H115   1.084   1_545  S
C106        C503   1.485   1_545  S
C106        C499   1.407       .  A
C107        C498   1.407       .  A
C107        C500   1.401       .  A
C107        O112   1.373   1_655  S
C108        C109   1.408       .  A
C108        C499   1.402       .  A
C108        H113   1.084       .  S
C109        C110   1.413       .  A
C110        O114   1.371       .  S
C111        C498   1.484   1_465  S
C111        C120   1.403       .  A
C111        C508   1.409       .  A
O112        H128   0.992   1_455  S
O114        H125   0.992       .  S
C116        C503   1.409       .  A
C116        C509   1.400       .  A
C116        O121   1.371       .  S
C117        C118   1.404       .  A
C117        C508   1.400       .  A
C117        H514   1.084       .  S
C118        C119   1.412       .  A
C119        C120   1.400       .  A
C119        O123   1.372       .  S
C120        H124   1.084       .  S
O121        H126   0.992       .  S
H122        C509   1.084       .  S
O123        H127   0.992       .  S
C129        C130   1.402       .  A
C129        C134   1.399       .  A
C129        H139   1.084       .  S
C130        C135   1.479       .  S
C130        C131   1.407       .  A
C131        C132   1.398       .  A
C131        O136   1.372       .  S
C132        C133   1.407       .  A
C132        H137   1.083       .  S
C133        C134   1.414       .  A
C134        O138   1.372       .  S
C135        C140   1.409       .  A
C135        C144   1.402       .  A
O136        H152   0.992       .  S
O138        H149   0.992       .  S
C140        C141   1.400       .  A
C140        O145   1.371       .  S
C141        C142   1.403       .  A
C141        H146   1.084       .  S
C142        C143   1.409       .  A
C143        C144   1.396       .  A
C143        O147   1.372       .  S
C144        H148   1.084       .  S
O145        H150   0.992       .  S
O147        H151   0.992       .  S
C153        C546   1.402       .  A
C153        C550   1.402       .  A
C153        H163   1.084       .  S
C154        C551   1.478       .  S
C154        C155   1.406       .  A
C154        C545   1.402       .  A
C155        C156   1.397       .  A
C155        O160   1.374       .  S
C156        C157   1.406       .  A
C156        H161   1.084       .  S
C157        C158   1.412       .  A
C158        C545   1.402       .  A
C158        O554   1.371       .  S
C159        C546   1.479       .  S
C159        C164   1.406       .  A
C159        C560   1.405       .  A
O160        H176   0.992       .  S
O162        C550   1.371       .  S
O162        H565   0.992       .  S
C164        C165   1.392       .  A
C164        O169   1.372       .  S
C165        C166   1.404       .  A
C165        H170   1.083       .  S
C166        C559   1.409       .  A
C167        C168   1.404   1_655  A
C167        C558   1.409       .  A
C167        O171   1.371       .  S
C168        C551   1.405       .  A
C168        H172   1.083       .  S
O169        H174   0.992       .  S
O171        H175   0.992   1_655  S
H173        O554   0.992       .  S
C177        C182   1.398       .  A
C177        C570   1.400       .  A
C177        H187   1.084       .  S
C178        C575   1.479       .  S
C178        C179   1.405   1_655  A
C178        C569   1.400       .  A
C179        C180   1.401       .  A
C179        O184   1.372       .  S
C180        C181   1.409       .  A
C180        H185   1.083       .  S
C181        C574   1.416       .  A
C182        C573   1.416       .  A
C182        O186   1.372       .  S
C183        C570   1.479       .  S
C183        C188   1.406       .  A
C183        C192   1.402       .  A
O184        H200   0.992   1_455  S
O186        H197   0.992       .  S
C188        C189   1.400       .  A
C188        O193   1.371       .  S
C189        C190   1.407       .  A
C189        H194   1.084       .  S
C190        C191   1.413       .  A
C191        C192   1.399       .  A
C191        O195   1.372       .  S
C192        H588   1.084       .  S
O193        H198   0.992       .  S
O195        H199   0.992       .  S
H196        C584   1.084   1_455  S
C201        C202   1.402       .  A
C201        C206   1.393       .  A
C201        H211   1.084       .  S
C202        C207   1.480       .  S
C202        C203   1.413       .  A
C203        C204   1.402       .  A
C203        O208   1.373       .  S
C204        C205   1.399       .  A
C204        H209   1.084       .  S
C205        C206   1.405       .  A
C206        O210   1.372       .  S
C207        C212   1.406       .  A
C207        C216   1.404       .  A
O208        H224   0.992       .  S
O210        H221   0.992       .  S
C212        C213   1.397       .  A
C212        O217   1.371       .  S
C213        C214   1.408       .  A
C213        H218   1.083       .  S
C214        C215   1.414       .  A
C215        C216   1.396       .  A
C215        O219   1.372       .  S
C216        H220   1.084       .  S
O217        H222   0.991       .  S
O219        H223   0.992       .  S
C225        C226   1.401       .  A
C225        C230   1.402       .  A
C225        H235   1.084       .  S
C226        C231   1.476       .  S
C226        C227   1.404       .  A
C227        C228   1.396       .  A
C227        O232   1.372       .  S
C228        C229   1.408       .  A
C228        H233   1.083       .  S
C229        C230   1.417       .  A
C230        O234   1.372       .  S
C231        C236   1.407       .  A
C231        C240   1.399       .  A
O232        H248   0.992       .  S
O234        H245   0.992       .  S
C236        C237   1.399       .  A
C236        O241   1.372       .  S
C237        C238   1.406       .  A
C237        H242   1.083       .  S
C238        C239   1.415       .  A
C239        C240   1.399       .  A
C239        O243   1.372       .  S
C240        H244   1.084       .  S
O241        H246   0.992       .  S
O243        H247   0.992       .  S
C249        C642   1.401       .  A
C249        C646   1.396       .  A
C249        H259   1.084       .  S
C250        C647   1.478       .  S
C250        C251   1.407       .  A
C250        C641   1.401       .  A
C251        C252   1.401       .  A
C251        O256   1.372       .  S
C252        C253   1.408       .  A
C252        H257   1.084       .  S
C253        C254   1.411       .  A
C254        C641   1.397       .  A
C254        O650   1.372       .  S
C255        C642   1.477       .  S
C255        C260   1.406       .  A
C255        C656   1.399       .  A
O256        H272   0.992       .  S
O258        C646   1.372       .  S
O258        H269   0.992       .  S
C260        C261   1.399       .  A
C260        O265   1.372       .  S
C261        C262   1.407       .  A
C261        H266   1.084       .  S
C262        C263   1.416       .  A
C263        C656   1.400       .  A
C263        O267   1.371       .  S
C264        C647   1.400   1_655  A
C264        C655   1.399       .  A
C264        H268   1.084       .  S
O265        H270   0.992       .  S
O267        H271   0.992       .  S
C273        C274   1.400       .  A
C273        C278   1.402       .  A
C273        H283   1.084       .  S
C274        C671   1.477       .  S
C274        C667   1.404       .  A
C275        C666   1.405       .  A
C275        C668   1.400       .  A
C275        O280   1.372   1_655  S
C276        C277   1.408       .  A
C276        C667   1.400       .  A
C276        H281   1.083       .  S
C277        C278   1.416       .  A
C278        O282   1.372       .  S
C279        C666   1.476       .  S
C279        C288   1.400   1_655  A
C279        C676   1.404       .  A
O280        H296   0.992       .  S
O282        H293   0.992       .  S
C284        C285   1.397       .  A
C284        C671   1.404       .  A
C284        O289   1.372       .  S
C285        C678   1.409       .  A
C285        H290   1.083       .  S
C286        C287   1.417       .  A
C286        C677   1.409       .  A
C287        C288   1.403       .  A
C287        O291   1.371       .  S
C288        H292   1.084       .  S
O289        H294   0.992       .  S
O291        H295   0.992       .  S
C297        C298   1.402       .  A
C297        C302   1.397       .  A
C297        H307   1.084       .  S
C298        C303   1.488       .  S
C298        C299   1.412       .  A
C299        C300   1.409       .  A
C299        O304   1.372       .  S
C300        C301   1.405       .  A
C300        H305   1.083       .  S
C301        C302   1.409       .  A
C302        O306   1.374       .  S
C303        C308   1.410       .  A
C303        C312   1.403       .  A
O304        H320   0.992       .  S
O306        H317   0.991       .  S
C308        C309   1.405       .  A
C308        O313   1.371       .  S
C309        C310   1.408       .  A
C309        H314   1.083       .  S
C310        C311   1.413       .  A
C311        C312   1.397       .  A
C311        O315   1.372       .  S
C312        H316   1.084       .  S
O313        H318   0.992       .  S
O315        H319   0.992       .  S
C321        C322   1.400       .  A
C321        C326   1.399       .  A
C321        H331   1.084       .  S
C322        C327   1.480       .  S
C322        C323   1.405       .  A
C323        C324   1.403       .  A
C323        O328   1.372       .  S
C324        C325   1.409       .  A
C324        H329   1.083       .  S
C325        C326   1.416       .  A
C326        O330   1.371       .  S
C327        C332   1.405       .  A
C327        C336   1.401       .  A
O328        H344   0.992       .  S
O330        H341   0.992       .  S
C332        C333   1.401       .  A
C332        O337   1.371       .  S
C333        C334   1.409       .  A
C333        H338   1.083       .  S
C334        C335   1.416       .  A
C335        C336   1.400       .  A
C335        O339   1.372       .  S
C336        H340   1.084       .  S
O337        H342   0.992       .  S
O339        H343   0.992       .  S
C345        C738   1.403   1_556  A
C345        C742   1.400       .  A
C345        H355   1.084       .  S
C346        C743   1.490   1_445  S
C346        C347   1.410       .  A
C346        C737   1.404   1_554  A
C347        C348   1.406       .  A
C347        O352   1.372       .  S
C348        C349   1.407   1_554  A
C348        H353   1.084       .  S
C349        C350   1.412       .  A
C350        C737   1.401       .  A
C350        O746   1.372       .  S
C351        C738   1.486   1_565  S
C351        C356   1.409   1_565  A
C351        C752   1.402   1_554  A
O352        H368   0.992       .  S
O354        C742   1.372       .  S
O354        H757   0.992       .  S
C356        C357   1.403   1_545  A
C356        O361   1.371       .  S
C357        C358   1.407       .  A
C357        H362   1.083       .  S
C358        C359   1.412   1_554  A
C359        C752   1.399       .  A
C359        O755   1.370       .  S
C360        C743   1.403   1_556  A
C360        C751   1.401       .  A
C360        H364   1.084       .  S
O361        H366   0.992       .  S
O363        C751   1.370       .  S
O363        H759   0.992       .  S
H365        O746   0.992       .  S
H367        O755   0.992       .  S
C369        C370   1.406   1_554  A
C369        C374   1.401       .  A
C369        H379   1.084       .  S
C370        C375   1.485       .  S
C370        C371   1.408       .  A
C371        C372   1.399       .  A
C371        O376   1.373       .  S
C372        C373   1.405   1_556  A
C372        H377   1.083       .  S
C373        C374   1.409       .  A
C374        O378   1.371       .  S
C375        C380   1.409       .  A
C375        C384   1.403   1_556  A
O376        H392   0.992       .  S
O378        H389   0.992       .  S
C380        C381   1.401       .  A
C380        O385   1.372       .  S
C381        C382   1.408       .  A
C381        H386   1.083       .  S
C382        C383   1.413   1_556  A
C383        C384   1.400       .  A
C383        O387   1.372       .  S
C384        H388   1.084       .  S
O385        H390   0.992       .  S
O387        H391   0.992       .  S
O393       Ni399   1.943       .  S
O393        C414   1.274       .  A
O394       Ni417   1.891       .  S
O394        C403   1.265   1_556  A
O395       Ni399   1.922       .  S
O395       Ni417   1.906       .  S
O395       Ni411   1.909   1_556  S
O395        H418   0.969       .  S
C396        O413   1.268       .  A
C396        O405   1.276       .  A
C396        C678   1.491       .  S
O397       Ni416   1.938       .  S
O397        C403   1.274       .  A
O398       Ni416   1.907       .  S
O398        C400   1.270       .  A
Ni399       O402   1.938       .  S
Ni399       O404   1.900       .  S
C400        O410   1.276       .  A
C400        C726   1.479       .  S
O401       Ni417   1.904       .  S
O401        C407   1.271       .  A
O402        C407   1.276       .  A
C403        C765   1.478       .  S
O404        C406   1.269       .  A
O405       Ni416   1.948       .  S
C406        O412   1.273       .  A
C406        C645   1.481       .  S
C407        C693   1.479       .  S
H408        O409   0.963       .  S
O409       Ni417   1.917   1_554  S
O409       Ni411   1.905       .  S
O409       Ni416   1.922       .  S
O410       Ni411   1.943       .  S
Ni411       O415   1.899       .  S
Ni411       O413   1.896       .  S
O412       Ni417   1.930       .  S
C414        O415   1.264   1_556  A
C414        C741   1.485       .  S
O419       Ni425   1.940       .  S
O419        C440   1.274       .  A
O420       Ni443   1.905       .  S
O420        C429   1.269   1_556  A
O421       Ni425   1.917       .  S
O421       Ni443   1.903       .  S
O421       Ni437   1.904   1_556  S
O421        H444   0.968       .  S
C422        O439   1.270       .  A
C422        O431   1.275       .  A
C422        C630   1.484       .  S
O423       Ni442   1.938       .  S
O423        C429   1.274       .  A
O424       Ni442   1.903       .  S
O424        C426   1.269       .  A
Ni425       O428   1.928       .  S
Ni425       O430   1.904       .  S
C426        O436   1.275       .  A
C426        C582   1.483       .  S
O427       Ni443   1.903       .  S
O427        C433   1.273       .  A
O428        C433   1.276       .  A
C429        C750   1.491       .  S
O430        C432   1.269       .  A
O431       Ni442   1.936       .  S
C432        O438   1.271       .  A
C432        C597   1.465       .  S
C433        C558   1.475       .  S
H434        O435   0.970       .  S
O435       Ni443   1.910   1_554  S
O435       Ni437   1.910       .  S
O435       Ni442   1.915       .  S
O436       Ni437   1.939       .  S
Ni437       O441   1.902       .  S
Ni437       O439   1.902       .  S
O438       Ni443   1.924       .  S
C440        O441   1.266   1_556  A
C440        C774   1.489       .  S
O445       Ni451   1.934       .  S
O445        C466   1.272       .  A
O446       Ni469   1.895       .  S
O446        C455   1.267       .  A
O447       Ni451   1.916       .  S
O447       Ni469   1.903       .  S
O447       Ni463   1.904       .  S
O447        H470   0.968       .  S
C448        O465   1.267       .  A
C448        O457   1.278       .  A
C448        C717   1.489       .  S
O449       Ni468   1.942       .  S
O449        C455   1.275       .  A
O450       Ni468   1.904       .  S
O450        C452   1.270       .  A
Ni451       O454   1.922       .  S
Ni451       O456   1.904       .  S
C452        O462   1.276       .  A
C452        C669   1.485       .  S
O453       Ni469   1.909       .  S
O453        C459   1.273       .  A
O454        C459   1.274       .  A
C455        C501   1.488       .  S
O456        C458   1.270       .  A
O457       Ni468   1.949       .  S
C458        O464   1.274       .  A
C458        C702   1.485       .  S
C459        C654   1.484       .  S
H460        O461   0.966       .  S
O461       Ni469   1.915       .  S
O461       Ni463   1.907       .  S
O461       Ni468   1.919       .  S
O462       Ni463   1.942       .  S
Ni463       O467   1.901       .  S
Ni463       O465   1.897       .  S
O464       Ni469   1.931       .  S
C466        O467   1.266       .  A
C466        C525   1.485       .  S
O471       Ni477   1.942       .  S
O471        C492   1.274       .  A
O472       Ni495   1.897       .  S
O472        C481   1.265       .  A
O473       Ni477   1.909       .  S
O473       Ni495   1.899       .  S
O473       Ni489   1.899       .  S
O473        H496   0.968       .  S
C474        O491   1.270       .  A
C474        O483   1.278       .  A
C474        C573   1.488       .  S
O475       Ni494   1.938       .  S
O475        C481   1.274       .  A
O476       Ni494   1.902       .  S
O476        C478   1.269       .  A
Ni477       O480   1.923       .  S
Ni477       O482   1.907       .  S
C478        O488   1.272       .  A
C478        C621   1.488       .  S
O479       Ni495   1.907       .  S
O479        C485   1.273       .  A
O480        C485   1.277       .  A
C481        C534   1.478       .  S
O482        C484   1.270       .  A
O483       Ni494   1.938       .  S
C484        O490   1.271       .  A
C484        C549   1.481       .  S
C485        C606   1.485       .  S
H486        O487   0.968       .  S
O487       Ni495   1.906       .  S
O487       Ni489   1.904       .  S
O487       Ni494   1.913       .  S
O488       Ni489   1.931       .  S
Ni489       O493   1.898       .  S
Ni489       O491   1.897       .  S
O490       Ni495   1.923       .  S
C492        O493   1.264       .  A
C492        C510   1.481       .  S
C497        C498   1.403       .  A
C497        C502   1.401       .  A
C497        H507   1.084   1_545  S
C499        O504   1.373       .  S
C500        C501   1.408       .  A
C500        H505   1.084       .  S
C501        C502   1.413       .  A
C502        O506   1.371       .  S
C503        C512   1.404       .  A
O504        H520   0.992       .  S
O506        H517   0.992       .  S
C508        O513   1.371   1_455  S
C509        C510   1.404       .  A
C510        C511   1.412       .  A
C511        C512   1.401       .  A
C511        O515   1.372       .  S
C512        H516   1.084       .  S
O513        H518   0.992       .  S
O515        H519   0.992       .  S
C521        C522   1.402       .  A
C521        C526   1.400       .  A
C521        H531   1.084       .  S
C522        C527   1.483       .  S
C522        C523   1.408       .  A
C523        C524   1.399       .  A
C523        O528   1.372       .  S
C524        C525   1.406       .  A
C524        H529   1.083       .  S
C525        C526   1.414       .  A
C526        O530   1.372       .  S
C527        C532   1.410       .  A
C527        C536   1.402       .  A
O528        H544   0.992       .  S
O530        H541   0.992       .  S
C532        C533   1.402       .  A
C532        O537   1.371       .  S
C533        C534   1.405       .  A
C533        H538   1.084       .  S
C534        C535   1.411       .  A
C535        C536   1.397       .  A
C535        O539   1.372       .  S
C536        H540   1.084       .  S
O537        H542   0.992       .  S
O539        H543   0.992       .  S
C545        H555   1.084       .  S
C546        C547   1.407       .  A
C547        C548   1.398       .  A
C547        O552   1.374       .  S
C548        C549   1.406       .  A
C548        H553   1.084       .  S
C549        C550   1.411       .  A
C551        C556   1.406   1_455  A
O552        H568   0.992       .  S
C556        C557   1.392       .  A
C556        O561   1.372       .  S
C557        C558   1.404       .  A
C557        H562   1.083       .  S
C559        C560   1.405       .  A
C559        O563   1.371       .  S
C560        H564   1.083       .  S
O561        H566   0.992       .  S
O563        H567   0.992       .  S
C569        C574   1.398   1_655  A
C569        H579   1.084       .  S
C570        C571   1.405       .  A
C571        C572   1.401       .  A
C571        O576   1.372       .  S
C572        C573   1.409       .  A
C572        H577   1.083       .  S
C574        O578   1.372       .  S
C575        C580   1.406       .  A
C575        C584   1.402       .  A
O576        H592   0.992       .  S
O578        H589   0.992       .  S
C580        C581   1.400       .  A
C580        O585   1.371       .  S
C581        C582   1.407       .  A
C581        H586   1.083       .  S
C582        C583   1.413       .  A
C583        C584   1.398       .  A
C583        O587   1.372       .  S
O585        H590   0.992       .  S
O587        H591   0.992       .  S
C593        C594   1.402       .  A
C593        C598   1.394       .  A
C593        H603   1.084       .  S
C594        C599   1.481       .  S
C594        C595   1.413       .  A
C595        C596   1.403       .  A
C595        O600   1.372       .  S
C596        C597   1.400       .  A
C596        H601   1.084       .  S
C597        C598   1.406       .  A
C598        O602   1.372       .  S
C599        C604   1.406       .  A
C599        C608   1.404       .  A
O600        H616   0.992       .  S
O602        H613   0.992       .  S
C604        C605   1.397       .  A
C604        O609   1.371       .  S
C605        C606   1.408       .  A
C605        H610   1.083       .  S
C606        C607   1.415       .  A
C607        C608   1.397       .  A
C607        O611   1.372       .  S
C608        H612   1.084       .  S
O609        H614   0.992       .  S
O611        H615   0.992       .  S
C617        C618   1.402       .  A
C617        C622   1.403       .  A
C617        H627   1.084       .  S
C618        C623   1.477       .  S
C618        C619   1.404       .  A
C619        C620   1.397       .  A
C619        O624   1.372       .  S
C620        C621   1.408       .  A
C620        H625   1.083       .  S
C621        C622   1.416       .  A
C622        O626   1.372       .  S
C623        C628   1.407       .  A
C623        C632   1.399       .  A
O624        H640   0.992       .  S
O626        H637   0.992       .  S
C628        C629   1.399       .  A
C628        O633   1.372       .  S
C629        C630   1.406       .  A
C629        H634   1.083       .  S
C630        C631   1.415       .  A
C631        C632   1.399       .  A
C631        O635   1.372       .  S
C632        H636   1.084       .  S
O633        H638   0.992       .  S
O635        H639   0.992       .  S
C641        H651   1.084       .  S
C642        C643   1.407       .  A
C643        C644   1.402       .  A
C643        O648   1.372       .  S
C644        C645   1.408       .  A
C644        H649   1.084       .  S
C645        C646   1.411       .  A
C647        C652   1.406       .  A
O648        H664   0.992       .  S
O650        H661   0.992       .  S
C652        C653   1.399   1_455  A
C652        O657   1.372       .  S
C653        C654   1.407       .  A
C653        H658   1.084       .  S
C654        C655   1.415       .  A
C655        O659   1.372       .  S
C656        H660   1.084       .  S
O657        H662   0.992       .  S
O659        H663   0.992       .  S
C665        C666   1.400       .  A
C665        C670   1.400       .  A
C665        H675   1.084       .  S
C667        O672   1.372       .  S
C668        C669   1.407       .  A
C668        H673   1.083       .  S
C669        C670   1.414       .  A
C670        O674   1.372       .  S
C671        C680   1.401       .  A
O672        H688   0.992       .  S
O674        H685   0.992       .  S
C676        C677   1.397   1_655  A
C676        O681   1.372       .  S
C677        H682   1.083       .  S
C678        C679   1.417       .  A
C679        C680   1.404       .  A
C679        O683   1.371       .  S
C680        H684   1.084       .  S
O681        H686   0.992       .  S
O683        H687   0.992       .  S
C689        C690   1.402       .  A
C689        C694   1.396       .  A
C689        H699   1.084       .  S
C690        C695   1.487       .  S
C690        C691   1.411       .  A
C691        C692   1.409       .  A
C691        O696   1.372       .  S
C692        C693   1.405       .  A
C692        H697   1.083       .  S
C693        C694   1.409       .  A
C694        O698   1.373       .  S
C695        C700   1.410       .  A
C695        C704   1.403       .  A
O696        H712   0.992       .  S
O698        H709   0.991       .  S
C700        C701   1.405       .  A
C700        O705   1.371       .  S
C701        C702   1.407       .  A
C701        H706   1.083       .  S
C702        C703   1.412       .  A
C703        C704   1.397       .  A
C703        O707   1.372       .  S
C704        H708   1.084       .  S
O705        H710   0.992       .  S
O707        H711   0.992       .  S
C713        C714   1.401       .  A
C713        C718   1.400       .  A
C713        H723   1.084       .  S
C714        C719   1.479       .  S
C714        C715   1.405       .  A
C715        C716   1.401       .  A
C715        O720   1.371       .  S
C716        C717   1.408       .  A
C716        H721   1.083       .  S
C717        C718   1.416       .  A
C718        O722   1.372       .  S
C719        C724   1.406       .  A
C719        C728   1.403       .  A
O720        H736   0.992       .  S
O722        H733   0.992       .  S
C724        C725   1.400       .  A
C724        O729   1.372       .  S
C725        C726   1.406       .  A
C725        H730   1.084       .  S
C726        C727   1.410       .  A
C727        C728   1.401       .  A
C727        O731   1.371       .  S
C728        H732   1.084       .  S
O729        H734   0.992       .  S
O731        H735   0.992       .  S
C737        H747   1.084   1_455  S
C738        C739   1.409       .  A
C739        C740   1.404       .  A
C739        O744   1.372       .  S
C740        C741   1.406   1_554  A
C740        H745   1.084       .  S
C741        C742   1.412       .  A
C743        C748   1.409   1_565  A
O744        H760   0.992       .  S
C748        C749   1.405   1_545  A
C748        O753   1.371       .  S
C749        C750   1.409       .  A
C749        H754   1.083       .  S
C750        C751   1.412   1_554  A
C752        H756   1.084       .  S
O753        H758   0.992       .  S
C761        C762   1.406   1_554  A
C761        C766   1.401       .  A
C761        H771   1.084       .  S
C762        C767   1.485       .  S
C762        C763   1.409       .  A
C763        C764   1.399       .  A
C763        O768   1.373       .  S
C764        C765   1.404   1_556  A
C764        H769   1.083       .  S
C765        C766   1.409       .  A
C766        O770   1.371       .  S
C767        C772   1.409       .  A
C767        C776   1.403   1_556  A
O768        H784   0.992       .  S
O770        H781   0.992       .  S
C772        C773   1.400       .  A
C772        O777   1.372       .  S
C773        C774   1.408       .  A
C773        H778   1.083       .  S
C774        C775   1.414   1_556  A
C775        C776   1.400       .  A
C775        O779   1.372       .  S
C776        H780   1.084       .  S
O777        H782   0.992       .  S
O779        H783   0.992       .  S
