geometry optimzed in LAMMPS
_audit_creation_date              2020-12-01 
_audit_creation_method            'lammps2cif' 
_symmetry_space_group_name_H-M    'P1' 
_symmetry_Int_Tables_number       1 
_symmetry_cell_setting            triclinic 
loop_ 
_symmetry_equiv_pos_as_xyz 
  x,y,z 
_cell_length_a                    52.57111231 
_cell_length_b                    52.83752151339802 
_cell_length_c                    52.25047429979602 
_cell_angle_alpha                 89.97792347281747 
_cell_angle_beta                  90.12250921179154 
_cell_angle_gamma                 90.07953162085107 
loop_ 
_atom_site_label 
_atom_site_type_symbol 
_atom_site_fract_x 
_atom_site_fract_y 
_atom_site_fract_z 
_atom_site_charge 
O1          O  0.83579870  0.52719077  0.86178728    -0.71300
O2          O  0.87269354  0.47210690  0.82546999    -0.72300
O3          O  0.83458771  0.47365334  0.86309200    -0.60900
O4          O  0.87384152  0.52557344  0.82409917    -0.69300
O5          O  0.90271852  0.52658759  0.85522336    -0.68900
O6          O  0.86437753  0.47310566  0.89306674    -0.60100
O7          O  0.90263979  0.47272972  0.85535915    -0.72700
O8          O  0.86479038  0.52663055  0.89257412    -0.71400
Cu9        Cu  0.85321042  0.49960832  0.84254876     1.04600
Cu10       Cu  0.88470072  0.49972987  0.87509654     1.04300
C11         C  0.84449286  0.53580390  0.88289379     0.94900
C12         C  0.89347604  0.46355677  0.83468574     0.94000
C13         C  0.84326342  0.46494277  0.88416798     0.86100
C14         C  0.89412817  0.53469494  0.83388531     0.92400
O15         O  0.71054166  0.70665142  0.05707594    -0.71300
O16         O  0.75107323  0.66989130  0.00469681    -0.72300
O17         O  0.71232169  0.70714654  0.00292548    -0.60900
O18         O  0.74896809  0.66903529  0.05882862    -0.69300
O19         O  0.71932767  0.63924827  0.05706709    -0.68900
O20         O  0.68323665  0.67685793  0.00207564    -0.60100
O21         O  0.72162845  0.63992208  0.00337328    -0.72700
O22         O  0.68110904  0.67665098  0.05582652    -0.71400
Cu23       Cu  0.73178400  0.68925941  0.03096054     1.04600
Cu24       Cu  0.70033812  0.65715787  0.02955206     1.04300
C25         C  0.68929204  0.69768717  0.06461995     0.94900
C26         C  0.74281468  0.64898031  0.99572265     0.94000
C27         C  0.69176716  0.69788384  0.99367893     0.86100
C28         C  0.73995692  0.64787146  0.06656556     0.92400
O29         O  0.50494402  0.77697011  0.86093062    -0.71300
O30         O  0.55536274  0.82155491  0.82509560    -0.72300
O31         O  0.55897410  0.78173060  0.86134143    -0.60900
O32         O  0.50199027  0.81702092  0.82458931    -0.69300
O33         O  0.49951383  0.84452181  0.85648938    -0.68900
O34         O  0.55642055  0.80978111  0.89264239    -0.60100
O35         O  0.55253100  0.84936116  0.85667956    -0.72700
O36         O  0.50286116  0.80488000  0.89243009    -0.71400
Cu37       Cu  0.53039204  0.79823561  0.84192281     1.04600
Cu38       Cu  0.52772786  0.82798835  0.87568430     1.04300
C39         C  0.49570601  0.78404189  0.88236707     0.94900
C40         C  0.56154149  0.84279091  0.83502622     0.94000
C41         C  0.56701743  0.79041837  0.88271537     0.86100
C42         C  0.49220776  0.83684268  0.83451214     0.92400
O43         O  0.66503338  0.02577406  0.72076590    -0.71300
O44         O  0.70503484  0.97510481  0.68137488    -0.72300
O45         O  0.66636268  0.97296702  0.71874732    -0.60900
O46         O  0.70318330  0.02828845  0.68335175    -0.69300
O47         O  0.73328504  0.02822850  0.71301626    -0.68900
O48         O  0.69505519  0.97302301  0.74981730    -0.60100
O49         O  0.73421447  0.97433231  0.71201866    -0.72700
O50         O  0.69486682  0.02661787  0.75088776    -0.71400
Cu51       Cu  0.68395900  0.00050291  0.70003996     1.04600
Cu52       Cu  0.71545047  0.00048218  0.73254857     1.04300
C53         C  0.67359225  0.03424984  0.74196854     0.94900
C54         C  0.72605261  0.96675144  0.69027493     0.94000
C55         C  0.67433215  0.96455322  0.74016934     0.86100
C56         C  0.72395234  0.03716229  0.69226585     0.92400
O57         O  0.05786946  0.69205169  0.67855162    -0.71300
O58         O  0.00786983  0.65266950  0.71974223    -0.72300
O59         O  0.00488998  0.69009604  0.68178825    -0.60900
O60         O  0.06149195  0.65431487  0.71674540    -0.69300
O61         O  0.06272242  0.68377365  0.74691398    -0.68900
O62         O  0.00538584  0.71982082  0.71165198    -0.60100
O63         O  0.00916216  0.68193002  0.75028407    -0.72700
O64         O  0.05895513  0.72167430  0.70863566    -0.71400
Cu65       Cu  0.03302054  0.67122244  0.69824070     1.04600
Cu66       Cu  0.03406973  0.70285223  0.73047660     1.04300
C67         C  0.06594586  0.71332853  0.68682435     0.94900
C68         C  0.00067258  0.66104527  0.74144161     0.94000
C69         C  0.99643426  0.71087353  0.69075201     0.86100
C70         C  0.07113874  0.66319407  0.73731506     0.92400
O71         O  0.89296600  0.83134957  0.51116212    -0.71300
O72         O  0.85332949  0.86841507  0.56547022    -0.72300
O73         O  0.89238802  0.83165440  0.56541823    -0.60900
O74         O  0.85395615  0.86849299  0.51125009    -0.69300
O75         O  0.82495864  0.83807496  0.51072734    -0.68900
O76         O  0.86316017  0.80147416  0.56522406    -0.60100
O77         O  0.82423555  0.83807024  0.56464634    -0.72700
O78         O  0.86378366  0.80111611  0.51126348    -0.71400
Cu79       Cu  0.87419639  0.85106057  0.53830531     1.04600
Cu80       Cu  0.84305819  0.81865094  0.53792807     1.04300
C81         C  0.88469119  0.81011396  0.50280231     0.94900
C82         C  0.83239626  0.85904644  0.57359590     0.94000
C83         C  0.88384355  0.81071187  0.57403949     0.86100
C84         C  0.83324083  0.85927892  0.50248921     0.92400
O85         O  0.56043042  0.21971966  0.85739996    -0.71300
O86         O  0.50234321  0.18658922  0.81908746    -0.72300
O87         O  0.50653321  0.22595696  0.85628029    -0.60900
O88         O  0.55606553  0.18091866  0.82011426    -0.69300
O89         O  0.55254918  0.15277961  0.85143409    -0.68900
O90         O  0.50327922  0.19720763  0.88701459    -0.60100
O91         O  0.49943325  0.15848824  0.85039152    -0.72700
O92         O  0.55621784  0.19112109  0.88812778    -0.71400
Cu93       Cu  0.53144453  0.20437212  0.83707135     1.04600
Cu94       Cu  0.52769336  0.17397871  0.87023908     1.04300
C95         C  0.56748982  0.21044534  0.87891235     0.94900
C96         C  0.49187011  0.16693493  0.82882107     0.94000
C97         C  0.49725577  0.21867435  0.87763194     0.86100
C98         C  0.56227050  0.15980165  0.83024438     0.92400
O99         O  0.67842786  0.32278664  0.05700104    -0.71300
O100        O  0.71775670  0.35929118  0.00349803    -0.72300
O101        O  0.67961719  0.32175007  0.00295328    -0.60900
O102        O  0.71728192  0.36020626  0.05737428    -0.69300
O103        O  0.74648509  0.33010165  0.05820060    -0.68900
O104        O  0.70898917  0.29174403  0.00412489    -0.60100
O105        O  0.74729156  0.32950338  0.00420091    -0.72700
O106        O  0.70755345  0.29262480  0.05825063    -0.71400
Cu107      Cu  0.69723659  0.34201468  0.03021638     1.04600
Cu108      Cu  0.72859550  0.30993286  0.03128310     1.04300
C109        C  0.68641450  0.30177988  0.06596962     0.94900
C110        C  0.73880279  0.35042808  0.99537941     0.94000
C111        C  0.68844033  0.30067845  0.99482228     0.86100
C112        C  0.73823836  0.35143309  0.06606812     0.92400
O113        O  0.82987496  0.47110179  0.20497752    -0.71300
O114        O  0.86467211  0.52571075  0.24566351    -0.72300
O115        O  0.82783203  0.52468083  0.20597157    -0.60900
O116        O  0.86646106  0.47196611  0.24497466    -0.69300
O117        O  0.89736184  0.47345994  0.21625839    -0.68900
O118        O  0.85861552  0.52606518  0.17713510    -0.60100
O119        O  0.89519691  0.52681502  0.21656053    -0.72700
O120        O  0.86085370  0.47267290  0.17640739    -0.71400
Cu121      Cu  0.84612569  0.49828178  0.22642960     1.04600
Cu122      Cu  0.87905937  0.49978632  0.19562129     1.04300
C123        C  0.83979186  0.46339581  0.18404575     0.94900
C124        C  0.88559241  0.53494979  0.23738332     0.94000
C125        C  0.83709370  0.53376572  0.18533996     0.86100
C126        C  0.88807301  0.46440584  0.23690852     0.92400
O127        O  0.00512659  0.68456590  0.39755246    -0.71300
O128        O  0.05606582  0.64304052  0.35992873    -0.72300
O129        O  0.05875219  0.68182874  0.39694171    -0.60900
O130        O  0.00237157  0.64593170  0.36008488    -0.69300
O131        O  0.00384377  0.67482948  0.32939760    -0.68900
O132        O  0.05975549  0.71079210  0.36636827    -0.60100
O133        O  0.05761368  0.67186719  0.32923552    -0.72700
O134        O  0.00587347  0.71363450  0.36701274    -0.71400
Cu135      Cu  0.03049788  0.66285312  0.37967172     1.04600
Cu136      Cu  0.03178697  0.69379032  0.34691416     1.04300
C137        C  0.99755080  0.70572962  0.38857063     0.94900
C138        C  0.06508777  0.65080893  0.33867627     0.94000
C139        C  0.06819975  0.70208867  0.38752824     0.86100
C140        C  0.99437110  0.65457243  0.33867343     0.92400
O141        O  0.20467709  0.79558976  0.50856019    -0.71300
O142        O  0.24369153  0.83316310  0.56234829    -0.72300
O143        O  0.20220857  0.79884531  0.56249587    -0.60900
O144        O  0.24608989  0.83025108  0.50823605    -0.69300
O145        O  0.21857605  0.86188917  0.50564082    -0.68900
O146        O  0.17510327  0.83071495  0.55957533    -0.60100
O147        O  0.21656882  0.86508619  0.55941320    -0.72700
O148        O  0.17730458  0.82724480  0.50564139    -0.71400
Cu149      Cu  0.22509536  0.81333594  0.53550858     1.04600
Cu150      Cu  0.19595765  0.84733704  0.53243084     1.04300
C151        C  0.18467133  0.80525068  0.49870271     0.94900
C152        C  0.23643560  0.85515328  0.56933821     0.94000
C153        C  0.18166709  0.80967750  0.56958654     0.86100
C154        C  0.23929707  0.85143524  0.49861493     0.92400
O155        O  0.39780807  0.97441432  0.71839832    -0.71300
O156        O  0.35692088  0.02523604  0.67934351    -0.72300
O157        O  0.39569172  0.02811844  0.71674214    -0.60900
O158        O  0.35898907  0.97179551  0.68092979    -0.69300
O159        O  0.32940543  0.97190927  0.71105888    -0.68900
O160        O  0.36667343  0.02777986  0.74739212    -0.60100
O161        O  0.32787950  0.02533371  0.70994138    -0.72700
O162        O  0.36821060  0.97377458  0.74857523    -0.71400
Cu163      Cu  0.37841444  0.99989870  0.69785122     1.04600
Cu164      Cu  0.34709922  0.99968744  0.73037987     1.04300
C165        C  0.38917936  0.96563671  0.73943554     0.94900
C166        C  0.33584693  0.03328633  0.68831269     0.94000
C167        C  0.38684455  0.03717977  0.73753914     0.86100
C168        C  0.33818285  0.96316532  0.69005966     0.92400
O169        O  0.70394392  0.02632545  0.31856882    -0.71300
O170        O  0.74089309  0.97528949  0.36112058    -0.72300
O171        O  0.70525939  0.97262720  0.32061727    -0.60900
O172        O  0.73951019  0.02857628  0.35919553    -0.69300
O173        O  0.70795814  0.02870082  0.38726127    -0.68900
O174        O  0.67392056  0.97280801  0.34889634    -0.60100
O175        O  0.70947738  0.97548842  0.38925209    -0.72700
O176        O  0.67258311  0.02647059  0.34687016    -0.71400
Cu177      Cu  0.72348167  0.00069188  0.33885254     1.04600
Cu178      Cu  0.68985491  0.00086035  0.36899017     1.04300
C179        C  0.68249486  0.03473355  0.32618790     0.94900
C180        C  0.73121287  0.96745876  0.38207475     0.94000
C181        C  0.68419925  0.96368118  0.32879817     0.86100
C182        C  0.72926713  0.03733705  0.37948748     0.92400
O183        O  0.50908115  0.82682384  0.23542628    -0.71300
O184        O  0.56274509  0.78882816  0.19700005    -0.72300
O185        O  0.56296247  0.82642440  0.23579553    -0.60900
O186        O  0.50892380  0.78893709  0.19705789    -0.69300
O187        O  0.50895657  0.81854491  0.16706300    -0.68900
O188        O  0.56304516  0.85607573  0.20589282    -0.60100
O189        O  0.56260462  0.81870397  0.16728095    -0.72700
O190        O  0.50947607  0.85622050  0.20518473    -0.71400
Cu191      Cu  0.53593655  0.80668940  0.21737839     1.04600
Cu192      Cu  0.53605166  0.83840033  0.18534834     1.04300
C193        C  0.50078495  0.84766823  0.22624085     0.94900
C194        C  0.57103860  0.79773633  0.17585284     0.94000
C195        C  0.57147796  0.84737400  0.22710847     0.86100
C196        C  0.50037295  0.79767226  0.17592918     0.92400
O197        O  0.17249754  0.47358859  0.83999954    -0.71300
O198        O  0.21022458  0.52334433  0.88321833    -0.72300
O199        O  0.17332313  0.52670579  0.84441274    -0.60900
O200        O  0.20928584  0.47029909  0.87923320    -0.69300
O201        O  0.24008792  0.47170040  0.85047547    -0.68900
O202        O  0.20364263  0.52895177  0.81515393    -0.60100
O203        O  0.24088614  0.52511869  0.85425212    -0.72700
O204        O  0.20295495  0.47530542  0.81089456    -0.71400
Cu205      Cu  0.19027782  0.49839113  0.86264527     1.04600
Cu206      Cu  0.22295439  0.50029833  0.83159995     1.04300
C207        C  0.18166211  0.46649270  0.81856113     0.94900
C208        C  0.23160213  0.53206791  0.87568707     0.94000
C209        C  0.18267429  0.53699980  0.82445666     0.86100
C210        C  0.23057881  0.46226976  0.87088287     0.92400
O211        O  0.36073749  0.69539238  0.00449070    -0.71300
O212        O  0.32152184  0.66490771  0.06229565    -0.72300
O213        O  0.36133094  0.70126573  0.05831786    -0.60900
O214        O  0.32133365  0.65955483  0.00847023    -0.69300
O215        O  0.34950037  0.62855358  0.01177640    -0.68900
O216        O  0.39016797  0.67078692  0.06063315    -0.60100
O217        O  0.35045716  0.63459370  0.06558067    -0.72700
O218        O  0.38895959  0.66441003  0.00704433    -0.71400
Cu219      Cu  0.34022423  0.68134290  0.03336773     1.04600
Cu220      Cu  0.37074854  0.64851025  0.03645996     1.04300
C221        C  0.38095484  0.68466774  0.99643870     0.94900
C222        C  0.32962403  0.64466130  0.07287278     0.94000
C223        C  0.38245384  0.69284700  0.06691916     0.86100
C224        C  0.32919379  0.63762995  0.00195477     0.92400
O225        O  0.23623764  0.52550800  0.20944885    -0.71300
O226        O  0.20091390  0.47058748  0.24851687    -0.72300
O227        O  0.23785951  0.47199730  0.20930355    -0.60900
O228        O  0.19908049  0.52429201  0.24877492    -0.69300
O229        O  0.16878527  0.52334079  0.21929857    -0.68900
O230        O  0.20705112  0.47125627  0.18032046    -0.60100
O231        O  0.17038307  0.46994277  0.21926262    -0.72700
O232        O  0.20573979  0.52433020  0.18009503    -0.71400
Cu233      Cu  0.21959100  0.49816309  0.23008746     1.04600
Cu234      Cu  0.18692145  0.49722513  0.19879073     1.04300
C235        C  0.22679348  0.53327439  0.18831480     0.94900
C236        C  0.18011861  0.46135745  0.23991144     0.94000
C237        C  0.22856721  0.46344818  0.18840520     0.86100
C238        C  0.17765600  0.53206253  0.24027741     0.92400
O239        O  0.39171661  0.33524990  0.00479875    -0.71300
O240        O  0.35210381  0.36772014  0.06094317    -0.72300
O241        O  0.39238578  0.33237963  0.05921350    -0.60900
O242        O  0.35154911  0.37031876  0.00668860    -0.69300
O243        O  0.32378804  0.33882096  0.00547494    -0.68900
O244        O  0.36441561  0.30109872  0.05787571    -0.60100
O245        O  0.32413638  0.33634455  0.05957472    -0.72700
O246        O  0.36385044  0.30384191  0.00356792    -0.71400
Cu247      Cu  0.37292620  0.35250880  0.03300436     1.04600
Cu248      Cu  0.34310605  0.31893401  0.03162124     1.04300
C249        C  0.38383030  0.31459038  0.99490484     0.94900
C250        C  0.33178579  0.35725021  0.06912905     0.94000
C251        C  0.38480290  0.31071968  0.06703012     0.86100
C252        C  0.33134917  0.36037619  0.99743737     0.92400
O253        O  0.56099192  0.17301813  0.23884849    -0.71300
O254        O  0.50643662  0.21426528  0.20392908    -0.72300
O255        O  0.50699303  0.17513541  0.24183874    -0.60900
O256        O  0.56016987  0.21207975  0.20148916    -0.69300
O257        O  0.55753487  0.18312955  0.17102022    -0.68900
O258        O  0.50441075  0.14642466  0.21109870    -0.60100
O259        O  0.50421779  0.18511753  0.17364025    -0.72700
O260        O  0.55789122  0.14428855  0.20813287    -0.71400
Cu261      Cu  0.53371633  0.19463717  0.22266290     1.04600
Cu262      Cu  0.53088757  0.16376208  0.18998478     1.04300
C263        C  0.56804197  0.15205309  0.22889575     0.94900
C264        C  0.49709402  0.20635116  0.18275564     0.94000
C265        C  0.49734283  0.15475676  0.23289158     0.86100
C266        C  0.56717702  0.20358401  0.17973457     0.92400
O267        O  0.05856715  0.35317554  0.70294688    -0.71300
O268        O  0.00141848  0.31256952  0.67450738    -0.72300
O269        O  0.00523747  0.35193512  0.71026583    -0.60900
O270        O  0.05457949  0.31358838  0.66737827    -0.69300
O271        O  0.05911493  0.28564698  0.69868672    -0.68900
O272        O  0.00974112  0.32390563  0.74145768    -0.60100
O273        O  0.00579468  0.28437506  0.70558520    -0.72700
O274        O  0.06320669  0.32531052  0.73423326    -0.71400
Cu275      Cu  0.02977158  0.33379130  0.68770361     1.04600
Cu276      Cu  0.03463194  0.30382978  0.72109586     1.04300
C277        C  0.07017869  0.34565623  0.72301371     0.94900
C278        C  0.99443299  0.29211788  0.68542980     0.94000
C279        C  0.99938818  0.34389128  0.73254523     0.86100
C280        C  0.06489923  0.29361673  0.67638713     0.92400
O281        O  0.81819799  0.16745721  0.56506900    -0.71300
O282        O  0.85971479  0.20234256  0.51113937    -0.72300
O283        O  0.81880947  0.16719422  0.51099124    -0.60900
O284        O  0.85878126  0.20243301  0.56545003    -0.69300
O285        O  0.88665635  0.17095142  0.56571266    -0.68900
O286        O  0.84655848  0.13570382  0.51187775    -0.60100
O287        O  0.88729255  0.17071194  0.51173148    -0.72700
O288        O  0.84607363  0.13612889  0.56572721    -0.71400
Cu289      Cu  0.83792307  0.18599732  0.53809705     1.04600
Cu290      Cu  0.86759208  0.15229145  0.53873922     1.04300
C291        C  0.82560958  0.14619687  0.57401626     0.94900
C292        C  0.88020390  0.19215719  0.50298821     0.94000
C293        C  0.82619554  0.14557057  0.50307517     0.86100
C294        C  0.87894998  0.19218784  0.57430169     0.92400
O295        O  0.21154659  0.13387452  0.56124570    -0.71300
O296        O  0.17678431  0.17010916  0.50393094    -0.72300
O297        O  0.21433197  0.13222079  0.50731916    -0.60900
O298        O  0.17412771  0.17198407  0.55785355    -0.69300
O299        O  0.20427117  0.20136795  0.55839911    -0.68900
O300        O  0.24433955  0.16164635  0.50794335    -0.60100
O301        O  0.20680897  0.19957941  0.50461399    -0.72700
O302        O  0.24165969  0.16317936  0.56190373    -0.71400
Cu303      Cu  0.19315547  0.15100681  0.53258199     1.04600
Cu304      Cu  0.22532983  0.18244896  0.53325165     1.04300
C305        C  0.23219881  0.14263741  0.57062895     0.94900
C306        C  0.18616258  0.19070623  0.49529113     0.94000
C307        C  0.23570586  0.14067264  0.49948047     0.86100
C308        C  0.18277360  0.19309270  0.56601646     0.92400
O309        O  0.32803419  0.02205976  0.36096300    -0.71300
O310        O  0.36741931  0.97282855  0.31868827    -0.72300
O311        O  0.33003611  0.96851851  0.35767521    -0.60900
O312        O  0.36555299  0.02630218  0.32229917    -0.69300
O313        O  0.39547729  0.02522879  0.35214012    -0.68900
O314        O  0.36052467  0.96781308  0.38697625    -0.60100
O315        O  0.39756441  0.97222820  0.34832231    -0.72700
O316        O  0.35825740  0.02102032  0.39051442    -0.71400
Cu317      Cu  0.34665718  0.99743372  0.33885224     1.04600
Cu318      Cu  0.37896071  0.99653652  0.37048217     1.04300
C319        C  0.33693652  0.02940853  0.38247062     0.94900
C320        C  0.38891525  0.96485677  0.32673298     0.94000
C321        C  0.33966879  0.95908838  0.37805716     0.86100
C322        C  0.38635877  0.03482613  0.33167712     0.92400
O323        O  0.00535693  0.35372894  0.36217433    -0.71300
O324        O  0.05970850  0.31339712  0.39717740    -0.72300
O325        O  0.05906997  0.35285472  0.36065665    -0.60900
O326        O  0.00608112  0.31415133  0.39908686    -0.69300
O327        O  0.00498872  0.28556619  0.36816143    -0.68900
O328        O  0.05789034  0.32456706  0.32941318    -0.60100
O329        O  0.05871629  0.28508669  0.36589743    -0.72700
O330        O  0.00416277  0.32513124  0.33127736    -0.71400
Cu331      Cu  0.03258220  0.33452118  0.38085946     1.04600
Cu332      Cu  0.03133454  0.30411282  0.34760607     1.04300
C333        C  0.99635561  0.34595439  0.34084142     0.94900
C334        C  0.06777800  0.29286604  0.38716659     0.94000
C335        C  0.06691437  0.34494503  0.33897667     0.86100
C336        C  0.99734370  0.29347341  0.38994272     0.92400
C337        C  0.10801572  0.26527537  0.44021292     0.14300
C338        C  0.12366744  0.24844361  0.42675478     0.01200
C339        C  0.12112193  0.24625788  0.40011786     0.16200
C340        C  0.10308916  0.26085688  0.38706153     0.25600
C341        C  0.08736264  0.27782286  0.40056629    -0.40700
C342        C  0.09009745  0.27989338  0.42728113     0.32700
C343        C  0.14222849  0.23303020  0.44100952     0.01300
F344        F  0.13629277  0.23022652  0.38678010    -0.13000
F345        F  0.07488462  0.29547811  0.44110053    -0.13500
C346        C  0.13921550  0.20669790  0.44263571     0.16200
C347        C  0.15421294  0.19265457  0.45957253     0.25600
C348        C  0.17252010  0.20481124  0.47505968    -0.40600
C349        C  0.17642742  0.23104179  0.47219006     0.32600
C350        C  0.16135776  0.24498661  0.45533772     0.14300
F351        F  0.12080030  0.19480317  0.42888275    -0.13000
F352        F  0.19379061  0.24355004  0.48673822    -0.13500
F353        F  0.15035992  0.16728699  0.46122495    -0.15800
F354        F  0.16474195  0.27042160  0.45370680    -0.14400
F355        F  0.10968171  0.26706632  0.46609342    -0.14400
F356        F  0.10133192  0.25867160  0.36122312    -0.15800
C357        C  0.28977108  0.11915546  0.45691076     0.14300
C358        C  0.27913853  0.09761865  0.44544967     0.01200
C359        C  0.25408023  0.09058817  0.45115586     0.16200
C360        C  0.23986160  0.10465750  0.46854131     0.25600
C361        C  0.25053833  0.12610821  0.48053584    -0.40700
C362        C  0.27563256  0.13333744  0.47430355     0.32700
C363        C  0.29464268  0.08145212  0.42879443     0.01300
F364        F  0.24365699  0.06955200  0.44047771    -0.13000
F365        F  0.28679223  0.15381743  0.48532580    -0.13500
C366        C  0.31584981  0.06892439  0.43894829     0.16200
C367        C  0.32968112  0.05214368  0.42387723     0.25600
C368        C  0.32252611  0.04763764  0.39824300    -0.40600
C369        C  0.30137616  0.06062846  0.38803169     0.32600
C370        C  0.28756616  0.07738753  0.40324721     0.14300
F371        F  0.32264334  0.07231147  0.46380883    -0.13000
F372        F  0.29398565  0.05722688  0.36335390    -0.13500
F373        F  0.34964410  0.03985251  0.43472799    -0.15800
F374        F  0.26724778  0.08968384  0.39307839    -0.14400
F375        F  0.31395573  0.12632904  0.45135121    -0.14400
F376        F  0.21573026  0.09704256  0.47369148    -0.15800
C377        C  0.93738049  0.21251492  0.46368763     0.14300
C378        C  0.92764673  0.23344154  0.45039323     0.01200
C379        C  0.90194236  0.23992145  0.45321532     0.16200
C380        C  0.88627400  0.22607588  0.46970252     0.25600
C381        C  0.89615185  0.20555439  0.48384474    -0.40700
C382        C  0.92182760  0.19865792  0.48024347     0.32700
C383        C  0.94461578  0.24905286  0.43434007     0.01300
F384        F  0.89204755  0.25973141  0.43997984    -0.13000
F385        F  0.93226001  0.17906355  0.49338533    -0.13500
C386        C  0.95573465  0.23888617  0.41226227     0.16200
C387        C  0.97253842  0.25339025  0.39760253     0.25600
C388        C  0.97865806  0.27840338  0.40488126    -0.40600
C389        C  0.96728211  0.28851638  0.42708964     0.32600
C390        C  0.95039317  0.27396394  0.44158914     0.14300
F391        F  0.95029465  0.21483160  0.40491420    -0.13000
F392        F  0.97252940  0.31244428  0.43499147    -0.13500
F393        F  0.98318416  0.24263724  0.37660994    -0.15800
F394        F  0.94014688  0.28397595  0.46316316    -0.14400
F395        F  0.96226517  0.20607134  0.46133401    -0.14400
F396        F  0.86144517  0.23280065  0.47174640    -0.15800
C397        C  0.93972689  0.27327267  0.64252097     0.14300
C398        C  0.93748611  0.24745087  0.64812522     0.01200
C399        C  0.95223598  0.23675831  0.66769227     0.16200
C400        C  0.97004103  0.25153010  0.68077400     0.25600
C401        C  0.97347136  0.27718314  0.67415870    -0.40700
C402        C  0.95754272  0.28807049  0.65541158     0.32700
C403        C  0.92198573  0.23132987  0.63139409     0.01300
F404        F  0.94998198  0.21179441  0.67345345    -0.13000
F405        F  0.95960132  0.31288886  0.64895616    -0.13500
C406        C  0.93410596  0.21449228  0.61467102     0.16200
C407        C  0.92002541  0.20138116  0.59635654     0.25600
C408        C  0.89357972  0.20503385  0.59449262    -0.40600
C409        C  0.88138263  0.22140516  0.61180724     0.32600
C410        C  0.89555184  0.23449803  0.63013885     0.14300
F411        F  0.95978933  0.21176211  0.61525552    -0.13000
F412        F  0.85577982  0.22469827  0.61103842    -0.13500
F413        F  0.93247022  0.18610418  0.57966563    -0.15800
F414        F  0.88359832  0.25055971  0.64642682    -0.14400
F415        F  0.92566356  0.28381916  0.62347273    -0.14400
F416        F  0.98471366  0.24034926  0.69894639    -0.15800
C417        C  0.13381685  0.21114050  0.61550973     0.14300
C418        C  0.13696901  0.23747666  0.61649107     0.01200
C419        C  0.15587075  0.24912955  0.60170880     0.16200
C420        C  0.17114917  0.23463884  0.58561065     0.25600
C421        C  0.16763221  0.20823652  0.58405799    -0.40700
C422        C  0.14898542  0.19659671  0.59938394     0.32700
C423        C  0.11958237  0.25282088  0.63198863     0.01300
F424        F  0.15933614  0.27458659  0.60272353    -0.13000
F425        F  0.14536396  0.17115249  0.59878848    -0.13500
C426        C  0.11849378  0.24942081  0.65855323     0.16200
C427        C  0.10075549  0.26273354  0.67303063     0.25600
C428        C  0.08383294  0.27973993  0.66108089    -0.40600
C429        C  0.08534242  0.28339303  0.63441508     0.32600
C430        C  0.10309505  0.26999936  0.62001613     0.14300
F431        F  0.13470418  0.23322499  0.67045286    -0.13000
F432        F  0.06920352  0.29934346  0.62209104    -0.13500
F433        F  0.10039678  0.25911820  0.69876011    -0.15800
F434        F  0.10366680  0.27317437  0.59422706    -0.14400
F435        F  0.11547355  0.19961727  0.62961156    -0.14400
F436        F  0.18871538  0.24660444  0.57090100    -0.15800
C437        C  0.45805631  0.13005983  0.28858330     0.14300
C438        C  0.44429437  0.11039658  0.27685314     0.01200
C439        C  0.44706467  0.10628277  0.25047211     0.16200
C440        C  0.46371842  0.12115238  0.23611086     0.25600
C441        C  0.47822754  0.14037467  0.24789494    -0.40700
C442        C  0.47493982  0.14487025  0.27429574     0.32700
C443        C  0.42858936  0.09284798  0.29228023     0.01300
F444        F  0.43443833  0.08706557  0.23874114    -0.13000
F445        F  0.48867220  0.16296587  0.28657994    -0.13500
C446        C  0.40297065  0.08837054  0.28598420     0.16200
C447        C  0.38901671  0.06981199  0.29895924     0.25600
C448        C  0.40042230  0.05551924  0.31867251    -0.40600
C449        C  0.42590495  0.06072150  0.32543040     0.32600
C450        C  0.43980940  0.07907023  0.31228777     0.14300
F451        F  0.39151964  0.10187745  0.26709351    -0.13000
F452        F  0.43787464  0.04741831  0.34414153    -0.13500
F453        F  0.36441585  0.06582846  0.29207851    -0.15800
F454        F  0.46470144  0.08253788  0.31836887    -0.14400
F455        F  0.45541844  0.13466597  0.31400983    -0.14400
F456        F  0.46583065  0.11637790  0.21067434    -0.15800
C457        C  0.40559490  0.25920698  0.11345202     0.14300
C458        C  0.42913834  0.26848991  0.12201236     0.01200
C459        C  0.43757113  0.29223606  0.11346671     0.16200
C460        C  0.42303801  0.30619493  0.09599190     0.25600
C461        C  0.39971571  0.29659284  0.08663545    -0.40700
C462        C  0.39100296  0.27305242  0.09599914     0.32700
C463        C  0.44570595  0.25249590  0.13825441     0.01300
F464        F  0.46043134  0.30146457  0.12124909    -0.13000
F465        F  0.36847493  0.26311744  0.08813239    -0.13500
C466        C  0.45425089  0.22915533  0.12889367     0.16200
C467        C  0.47041846  0.21403705  0.14354290     0.25600
C468        C  0.47857970  0.22196476  0.16804725    -0.40600
C469        C  0.46975322  0.24539401  0.17749424     0.32600
C470        C  0.45348970  0.26050431  0.16267756     0.14300
F471        F  0.44751153  0.22129404  0.10507549    -0.13000
F472        F  0.47695139  0.25387981  0.20094045    -0.13500
F473        F  0.47847590  0.19186114  0.13326045    -0.15800
F474        F  0.44523406  0.28293073  0.17221161    -0.14400
F475        F  0.39683982  0.23648497  0.12184998    -0.14400
F476        F  0.43220399  0.32884361  0.08787634    -0.15800
C477        C  0.25107317  0.42485734  0.13198996     0.14300
C478        C  0.27150594  0.41142398  0.14265391     0.01200
C479        C  0.27728803  0.41435450  0.16873073     0.16200
C480        C  0.26316090  0.43100625  0.18383322     0.25600
C481        C  0.24288889  0.44484384  0.17305143    -0.40700
C482        C  0.23680602  0.44128022  0.14701704     0.32700
C483        C  0.28752135  0.39560045  0.12598647     0.01300
F484        F  0.29666669  0.40112199  0.17952682    -0.13000
F485        F  0.21764959  0.45439750  0.13568157    -0.13500
C486        C  0.31347035  0.40119057  0.12318293     0.16200
C487        C  0.32805626  0.38827856  0.10515481     0.25600
C488        C  0.31685760  0.36961546  0.08949335    -0.40600
C489        C  0.29098936  0.36352031  0.09295011     0.32600
C490        C  0.27650944  0.37635522  0.11111581     0.14300
F491        F  0.32444091  0.41998639  0.13709441    -0.13000
F492        F  0.27933647  0.34590567  0.07805677    -0.13500
F493        F  0.35306018  0.39433332  0.10286316    -0.15800
F494        F  0.25151481  0.37040401  0.11379950    -0.14400
F495        F  0.24555891  0.42287350  0.10666016    -0.14400
F496        F  0.26933790  0.43350267  0.20895239    -0.15800
C497        C  0.11784539  0.36295228  0.29082245     0.14300
C498        C  0.12218085  0.38839857  0.29717903     0.01200
C499        C  0.10882794  0.39929895  0.31759490     0.16200
C500        C  0.09115688  0.38510917  0.33135502     0.25600
C501        C  0.08635452  0.35965325  0.32485224    -0.40700
C502        C  0.10006380  0.34866385  0.30451228     0.32700
C503        C  0.13928506  0.40433860  0.28167291     0.01300
F504        F  0.11219563  0.42409500  0.32358208    -0.13000
F505        F  0.09640651  0.32408207  0.29787708    -0.13500
C506        C  0.13366530  0.40881700  0.25581804     0.16200
C507        C  0.14741728  0.42681849  0.24202712     0.25600
C508        C  0.16703845  0.44077604  0.25393004    -0.40600
C509        C  0.17345086  0.43525629  0.27954398     0.32600
C510        C  0.15967773  0.41716581  0.29324454     0.14300
F511        F  0.11398386  0.39666035  0.24424863    -0.13000
F512        F  0.19235443  0.44800260  0.29174857    -0.13500
F513        F  0.14113415  0.43082365  0.21713138    -0.15800
F514        F  0.16579660  0.41261203  0.31808598    -0.14400
F515        F  0.13083744  0.35197213  0.27133648    -0.14400
F516        F  0.07816680  0.39668081  0.35048313    -0.15800
C517        C  0.27295224  0.62071096  0.11023126     0.14300
C518        C  0.28452687  0.60338364  0.12694897     0.01200
C519        C  0.31113584  0.60121476  0.12729107     0.16200
C520        C  0.32594063  0.61546228  0.11043347     0.25600
C521        C  0.31434156  0.63210271  0.09289590    -0.40700
C522        C  0.28771206  0.63503156  0.09338502     0.32700
C523        C  0.26882866  0.58645596  0.14290938     0.01300
F524        F  0.32272043  0.58442906  0.14316504    -0.13000
F525        F  0.27577358  0.65076625  0.07669728    -0.13500
C526        C  0.25167450  0.56961559  0.13126275     0.16200
C527        C  0.23761045  0.55269978  0.14609399     0.25600
C528        C  0.24062727  0.55219229  0.17287982    -0.40600
C529        C  0.25771143  0.56922464  0.18452124     0.32600
C530        C  0.27162489  0.58628050  0.16963150     0.14300
F531        F  0.24925286  0.56890299  0.10538559    -0.13000
F532        F  0.26082748  0.56953101  0.21032120    -0.13500
F533        F  0.22187593  0.53608829  0.13407925    -0.15800
F534        F  0.28781628  0.60269349  0.18128451    -0.14400
F535        F  0.24725965  0.62334231  0.10986100    -0.14400
F536        F  0.35160762  0.61266195  0.11103363    -0.15800
C537        C  0.16325493  0.42298340  0.76359365     0.14300
C538        C  0.14092675  0.41192779  0.77307983     0.01200
C539        C  0.13176327  0.41913389  0.79718333     0.16200
C540        C  0.14490105  0.43685000  0.81188238     0.25600
C541        C  0.16755320  0.44789651  0.80268360    -0.40700
C542        C  0.17649703  0.44082890  0.77823196     0.32700
C543        C  0.12648640  0.39330735  0.75788302     0.01300
F544        F  0.10970764  0.40926310  0.80633907    -0.13000
F545        F  0.19800191  0.45114677  0.76834004    -0.13500
C546        C  0.12137830  0.36929306  0.76811483     0.16200
C547        C  0.10397904  0.35322367  0.75615785     0.25600
C548        C  0.09130735  0.36097717  0.73367828    -0.40600
C549        C  0.09819608  0.38425329  0.72232100     0.32600
C550        C  0.11555737  0.40030846  0.73443331     0.14300
F551        F  0.13262749  0.36178754  0.79027009    -0.13000
F552        F  0.08747182  0.39206897  0.70001648    -0.13500
F553        F  0.09902389  0.33046467  0.76715780    -0.15800
F554        F  0.12050479  0.42334670  0.72402794    -0.14400
F555        F  0.17238837  0.41626467  0.74027860    -0.14400
F556        F  0.13527410  0.44307358  0.83513467    -0.15800
C557        C  0.28542860  0.62165054  0.94658354     0.14300
C558        C  0.28812484  0.59532158  0.94516275     0.01200
C559        C  0.30430402  0.58279589  0.96235731     0.16200
C560        C  0.31762970  0.59646330  0.98093905     0.25600
C561        C  0.31492169  0.62294741  0.98257001    -0.40700
C562        C  0.29874097  0.63540331  0.96508323     0.32700
C563        C  0.27350569  0.58072260  0.92620810     0.01300
F564        F  0.30673867  0.55722514  0.96144936    -0.13000
F565        F  0.29620457  0.66097085  0.96544153    -0.13500
C566        C  0.28598443  0.56842361  0.90607006     0.16200
C567        C  0.27228419  0.55319623  0.88907684     0.25600
C568        C  0.24584764  0.54987414  0.89219176    -0.40600
C569        C  0.23333889  0.56297573  0.91200109     0.32600
C570        C  0.24709374  0.57830092  0.92881583     0.14300
F571        F  0.31150628  0.57100751  0.90305582    -0.13000
F572        F  0.20779767  0.56091674  0.91524279    -0.13500
F573        F  0.28509484  0.54107130  0.87017541    -0.15800
F574        F  0.23474792  0.59020722  0.94816974    -0.14400
F575        F  0.27011623  0.63404748  0.92980101    -0.14400
F576        F  0.33272699  0.58367864  0.99761768    -0.15800
C577        C  0.28447708  0.42178086  0.89663663     0.14300
C578        C  0.27357677  0.41223873  0.91915775     0.01200
C579        C  0.24786292  0.41692650  0.92429387     0.16200
C580        C  0.23349193  0.43201224  0.90782737     0.25600
C581        C  0.24467655  0.44295178  0.88588937    -0.40700
C582        C  0.27015220  0.43692441  0.88003582     0.32700
C583        C  0.28919462  0.39854555  0.93812091     0.01300
F584        F  0.23696033  0.40787914  0.94599931    -0.13000
F585        F  0.28158080  0.44636492  0.85879616    -0.13500
C586        C  0.30905709  0.41106440  0.95089252     0.16200
C587        C  0.32275794  0.39877386  0.97018052     0.25600
C588        C  0.31680562  0.37362236  0.97705374    -0.40600
C589        C  0.29695381  0.36109936  0.96389393     0.32600
C590        C  0.28330523  0.37349744  0.94467209     0.14300
F591        F  0.31464875  0.43553105  0.94521489    -0.13000
F592        F  0.29070408  0.33676709  0.96942313    -0.13500
F593        F  0.34150642  0.41175923  0.98236868    -0.15800
F594        F  0.26428429  0.36101681  0.93236267    -0.14400
F595        F  0.30916768  0.41679583  0.89099767    -0.14400
F596        F  0.20881416  0.43648420  0.91395735    -0.15800
C597        C  0.45902666  0.74353452  0.15230254     0.14300
C598        C  0.44574855  0.75498247  0.13208674     0.01200
C599        C  0.44939761  0.78081627  0.12708827     0.16200
C600        C  0.46678927  0.79487638  0.14159960     0.25600
C601        C  0.48077092  0.78328979  0.16148414    -0.40700
C602        C  0.47630387  0.75750935  0.16693755     0.32700
C603        C  0.42932747  0.73948419  0.11530764     0.01300
F604        F  0.43674348  0.79221260  0.10756290    -0.13000
F605        F  0.48920368  0.74547473  0.18589920    -0.13500
C606        C  0.40295383  0.74347286  0.11432322     0.16200
C607        C  0.38758331  0.72831780  0.09864219     0.25600
C608        C  0.39842384  0.70887889  0.08376310    -0.40600
C609        C  0.42495421  0.70523030  0.08462727     0.32600
C610        C  0.44021101  0.72040667  0.10024044     0.14300
F611        F  0.39207034  0.76173466  0.12891319    -0.13000
F612        F  0.43630998  0.68744147  0.06980049    -0.13500
F613        F  0.36208288  0.73235621  0.09843385    -0.15800
F614        F  0.46578408  0.71679583  0.10033126    -0.14400
F615        F  0.45544873  0.71862862  0.15764974    -0.14400
F616        F  0.46998948  0.81977744  0.13602797    -0.15800
C617        C  0.45145116  0.89751682  0.24081951     0.14300
C618        C  0.44808663  0.89423700  0.26725440     0.01200
C619        C  0.46061749  0.87426195  0.27979587     0.16200
C620        C  0.47735725  0.85867746  0.26642409     0.25600
C621        C  0.48142093  0.86246909  0.24009072    -0.40700
C622        C  0.46771614  0.88160536  0.22729677     0.32700
C623        C  0.43279972  0.91248208  0.28207453     0.01300
F624        F  0.45699999  0.87014837  0.30518942    -0.13000
F625        F  0.47031006  0.88527530  0.20170436    -0.13500
C626        C  0.40764987  0.91813146  0.27498602     0.16200
C627        C  0.39343875  0.93545718  0.28918288     0.25600
C628        C  0.40400973  0.94706834  0.31106833    -0.40600
C629        C  0.42935145  0.94150013  0.31788146     0.32600
C630        C  0.44362407  0.92463979  0.30335852     0.14300
F631        F  0.39665469  0.90653126  0.25457391    -0.13000
F632        F  0.44063384  0.95257207  0.33843422    -0.13500
F633        F  0.36925336  0.94052323  0.28160423    -0.15800
F634        F  0.46830305  0.92052873  0.30987306    -0.14400
F635        F  0.43987841  0.91683222  0.22822649    -0.14400
F636        F  0.49031285  0.84061413  0.27954078    -0.15800
C637        C  0.77817445  0.13045410  0.45098444     0.14300
C638        C  0.78275647  0.10457024  0.44712696     0.01200
C639        C  0.80108466  0.09217509  0.46211713     0.16200
C640        C  0.81523894  0.10553174  0.48013761     0.25600
C641        C  0.81104559  0.13159535  0.48388222    -0.40700
C642        C  0.79210312  0.14387172  0.46932749     0.32700
C643        C  0.76858912  0.09011631  0.42761752     0.01300
F644        F  0.80502186  0.06689749  0.45956840    -0.13000
F645        F  0.78729985  0.16892217  0.47245953    -0.13500
C646        C  0.78193744  0.07628221  0.40906524     0.16200
C647        C  0.76907704  0.05969489  0.39283128     0.25600
C648        C  0.74250151  0.05694365  0.39461383    -0.40600
C649        C  0.72899359  0.07197606  0.41222683     0.32600
C650        C  0.74197386  0.08834510  0.42868598     0.14300
F651        F  0.80763484  0.07826445  0.40723980    -0.13000
F652        F  0.70326281  0.07048724  0.41392801    -0.13500
F653        F  0.78288152  0.04537567  0.37636741    -0.15800
F654        F  0.72865669  0.10147962  0.44651497    -0.14400
F655        F  0.76057834  0.14284264  0.43664846    -0.14400
F656        F  0.83272879  0.09269148  0.49420796    -0.15800
C657        C  0.63845620  0.91044295  0.31299724     0.14300
C658        C  0.64308596  0.90681693  0.28674142     0.01200
C659        C  0.66308328  0.92025962  0.27508895     0.16200
C660        C  0.67681191  0.93839663  0.28882495     0.25600
C661        C  0.67133638  0.94294072  0.31477650    -0.40700
C662        C  0.65267122  0.92806446  0.32694426     0.32700
C663        C  0.62580541  0.89082636  0.27103675     0.01300
F664        F  0.66894430  0.91626797  0.25011616    -0.13000
F665        F  0.64783428  0.93080052  0.35231641    -0.13500
C666        C  0.61467928  0.90088435  0.24875783     0.16200
C667        C  0.59779174  0.88650710  0.23412769     0.25600
C668        C  0.59080498  0.86191025  0.24187736    -0.40600
C669        C  0.60191950  0.85183813  0.26430479     0.32600
C670        C  0.61947776  0.86603511  0.27850971     0.14300
F671        F  0.61943458  0.92512666  0.24154233    -0.13000
F672        F  0.59582145  0.82827205  0.27267792    -0.13500
F673        F  0.58783399  0.89712965  0.21267731    -0.15800
F674        F  0.63036979  0.85545616  0.29953009    -0.14400
F675        F  0.61932257  0.89788858  0.32496345    -0.14400
F676        F  0.69468074  0.95223619  0.27632761    -0.15800
C677        C  0.65856745  0.07351543  0.27009934     0.14300
C678        C  0.64063417  0.08919513  0.28210090     0.01200
C679        C  0.63753240  0.08781804  0.30873664     0.16200
C680        C  0.65156138  0.07048876  0.32311495     0.25600
C681        C  0.66893340  0.05412580  0.31107477    -0.40700
C682        C  0.67271833  0.05618119  0.28447689     0.32700
C683        C  0.62381112  0.10575843  0.26685970     0.01300
F684        F  0.62016018  0.10263032  0.32072963    -0.13000
F685        F  0.68941050  0.04081812  0.27221684    -0.13500
C686        C  0.60697966  0.09507286  0.24900500     0.16200
C687        C  0.58918053  0.11019302  0.23637988     0.25600
C688        C  0.58778320  0.13636821  0.24148235    -0.40600
C689        C  0.60519290  0.14713702  0.25890520     0.32600
C690        C  0.62308202  0.13193404  0.27143203     0.14300
F691        F  0.60701858  0.06973380  0.24462889    -0.13000
F692        F  0.60504197  0.17237567  0.26375639    -0.13500
F693        F  0.57264986  0.09892033  0.21993499    -0.15800
F694        F  0.63965101  0.14271578  0.28817149    -0.14400
F695        F  0.66211796  0.07478783  0.24439802    -0.14400
F696        F  0.64811258  0.06976840  0.34885762    -0.15800
C697        C  0.28115577  0.12474208  0.62089191     0.14300
C698        C  0.27386285  0.09986787  0.62672046     0.01200
C699        C  0.25181758  0.08971191  0.61556295     0.16200
C700        C  0.23773233  0.10389643  0.59801596     0.25600
C701        C  0.24559047  0.12854247  0.59116801    -0.40700
C702        C  0.26716174  0.13900936  0.60333319     0.32700
C703        C  0.29003237  0.08398677  0.64327993     0.01300
F704        F  0.24454714  0.06558821  0.62080855    -0.13000
F705        F  0.27502106  0.16293944  0.59808633    -0.13500
C706        C  0.28036933  0.07366204  0.66599237     0.16200
C707        C  0.29537317  0.05760508  0.68094731     0.25600
C708        C  0.32038084  0.05150595  0.67333644    -0.40600
C709        C  0.33010437  0.06238847  0.65071018     0.32600
C710        C  0.31501893  0.07839396  0.63584071     0.14300
F711        F  0.25632243  0.07910577  0.67364628    -0.13000
F712        F  0.35414025  0.05743708  0.64269571    -0.13500
F713        F  0.28511782  0.04771016  0.70258436    -0.15800
F714        F  0.32456877  0.08785184  0.61367176    -0.14400
F715        F  0.30206666  0.13511092  0.63204742    -0.14400
F716        F  0.21692292  0.09303899  0.58715459    -0.15800
C717        C  0.28323264  0.92475193  0.66341144     0.14300
C718        C  0.29529601  0.91083744  0.64407415     0.01200
C719        C  0.32180001  0.91237310  0.64142564     0.16200
C720        C  0.33594269  0.92867858  0.65703049     0.25600
C721        C  0.32376794  0.94364014  0.67568474    -0.40700
C722        C  0.29731707  0.94091990  0.67919177     0.32700
C723        C  0.28000000  0.89632826  0.62541487     0.01300
F724        F  0.33383624  0.89893099  0.62292228    -0.13000
F725        F  0.28479081  0.95480659  0.69701366    -0.13500
C726        C  0.26368138  0.90917163  0.60857110     0.16200
C727        C  0.24944970  0.89582005  0.59044179     0.25600
C728        C  0.25126934  0.86926135  0.58883757    -0.40600
C729        C  0.26774333  0.85644060  0.60578913     0.32600
C730        C  0.28200217  0.86990465  0.62389115     0.14300
F731        F  0.26204993  0.93481206  0.60927672    -0.13000
F732        F  0.26983398  0.83083721  0.60514321    -0.13500
F733        F  0.23448785  0.90903410  0.57398411    -0.15800
F734        F  0.29757149  0.85714218  0.64013853    -0.14400
F735        F  0.25764950  0.92311237  0.66656302    -0.14400
F736        F  0.36149384  0.93009782  0.65355865    -0.15800
C737        C  0.26817971  0.90352873  0.45855035     0.14300
C738        C  0.28488660  0.89010602  0.44270944     0.01200
C739        C  0.28741928  0.86382062  0.44580051     0.16200
C740        C  0.27281279  0.85103304  0.46415365     0.25600
C741        C  0.25549056  0.86446438  0.47959204    -0.40700
C742        C  0.25364306  0.89090732  0.47677963     0.32700
C743        C  0.29965724  0.90412718  0.42333678     0.01300
F744        F  0.30362960  0.85054099  0.43073334    -0.13000
F745        F  0.23815056  0.90477116  0.49208652    -0.13500
C746        C  0.32605183  0.90686559  0.42601530     0.16200
C747        C  0.33931423  0.92395430  0.41053152     0.25600
C748        C  0.32632728  0.93856612  0.39203151    -0.40600
C749        C  0.30006222  0.93454419  0.38842288     0.32600
C750        C  0.28688978  0.91751368  0.40399180     0.14300
F751        F  0.33873144  0.89412636  0.44465781    -0.13000
F752        F  0.28673751  0.94813194  0.37089415    -0.13500
F753        F  0.36474669  0.92668440  0.41421755    -0.15800
F754        F  0.26136061  0.91486421  0.40096077    -0.14400
F755        F  0.26624801  0.92908829  0.45659588    -0.14400
F756        F  0.27519604  0.82554058  0.46637136    -0.15800
C757        C  0.11715544  0.75211745  0.40505763     0.14300
C758        C  0.12386889  0.74467880  0.42989688     0.01200
C759        C  0.11377278  0.72231221  0.44013348     0.16200
C760        C  0.09626626  0.70801658  0.42611649     0.25600
C761        C  0.08855257  0.71589440  0.40148470    -0.40700
C762        C  0.09977757  0.73781200  0.39085248     0.32700
C763        C  0.14017179  0.76098594  0.44585269     0.01300
F764        F  0.12013288  0.71486548  0.46418302    -0.13000
F765        F  0.09373206  0.74574104  0.36688059    -0.13500
C766        C  0.13052831  0.78374531  0.45557193     0.16200
C767        C  0.14510454  0.79843623  0.47233077     0.25600
C768        C  0.16974041  0.79058992  0.47960526    -0.40600
C769        C  0.17951935  0.76795099  0.46916177     0.32600
C770        C  0.16477504  0.75327042  0.45253509     0.14300
F771        F  0.10655559  0.79125068  0.44952757    -0.13000
F772        F  0.20328782  0.75980068  0.47511080    -0.13500
F773        F  0.13466287  0.81986909  0.48201553    -0.15800
F774        F  0.17442764  0.73137843  0.44305499    -0.14400
F775        F  0.12723681  0.77345595  0.39470015    -0.14400
F776        F  0.08639294  0.68689053  0.43709489    -0.15800
C777        C  0.10790854  0.62536263  0.28624819     0.14300
C778        C  0.11811927  0.60377249  0.29798781     0.01200
C779        C  0.11189561  0.59824750  0.32344526     0.16200
C780        C  0.09503125  0.61373744  0.33684298     0.25600
C781        C  0.08407972  0.63514049  0.32493590    -0.40700
C782        C  0.09108774  0.64096621  0.29955952     0.32700
C783        C  0.13376113  0.58602434  0.28305323     0.01300
F784        F  0.12143501  0.57727669  0.33502331    -0.13000
F785        F  0.08121564  0.66135903  0.28726391    -0.13500
C786        C  0.15931506  0.58172945  0.28945246     0.16200
C787        C  0.17378406  0.56443190  0.27541599     0.25600
C788        C  0.16277249  0.55099490  0.25483735    -0.40600
C789        C  0.13707690  0.55557031  0.24851094     0.32600
C790        C  0.12278574  0.57290297  0.26250707     0.14300
F791        F  0.17028963  0.59448558  0.30915381    -0.13000
F792        F  0.12544759  0.54293083  0.22911188    -0.13500
F793        F  0.19857914  0.56107484  0.28188524    -0.15800
F794        F  0.09791979  0.57645172  0.25639605    -0.14400
F795        F  0.11401951  0.63111748  0.26168478    -0.14400
F796        F  0.08927224  0.60748795  0.36136879    -0.15800
C797        C  0.94244046  0.60747988  0.32211673     0.14300
C798        C  0.94065306  0.61047361  0.29544220     0.01200
C799        C  0.95499599  0.62951867  0.28343615     0.16200
C800        C  0.97198817  0.64428853  0.29756415     0.25600
C801        C  0.97462673  0.64061171  0.32416534    -0.40700
C802        C  0.95913862  0.62251959  0.33637042     0.32700
C803        C  0.92582241  0.59222541  0.27991061     0.01300
F804        F  0.95308606  0.63334929  0.25779343    -0.13000
F805        F  0.96045174  0.61896664  0.36208104    -0.13500
C806        C  0.90012743  0.58716604  0.28530637     0.16200
C807        C  0.88691575  0.56857015  0.27156792     0.25600
C808        C  0.89910463  0.55498726  0.25188477    -0.40600
C809        C  0.92469478  0.56062842  0.24617549     0.32600
C810        C  0.93791115  0.57881423  0.26019344     0.14300
F811        F  0.88777763  0.60034051  0.30379463    -0.13000
F812        F  0.93736499  0.54807246  0.22746342    -0.13500
F813        F  0.86217543  0.56407241  0.27745580    -0.15800
F814        F  0.96292980  0.58266937  0.25502494    -0.14400
F815        F  0.92900249  0.58909795  0.33424081    -0.14400
F816        F  0.98670996  0.66129438  0.28490517    -0.15800
C817        C  0.95135115  0.39942654  0.32293444     0.14300
C818        C  0.94525461  0.39309056  0.29761047     0.01200
C819        C  0.95455964  0.37061142  0.28704708     0.16200
C820        C  0.97041959  0.35484929  0.30137929     0.25600
C821        C  0.97748877  0.36147246  0.32660722    -0.40700
C822        C  0.96737048  0.38381178  0.33736190     0.32700
C823        C  0.93041229  0.41066982  0.28165669     0.01300
F824        F  0.94861044  0.36417120  0.26259902    -0.13000
F825        F  0.97328828  0.39091052  0.36162977    -0.13500
C826        C  0.94283299  0.42578689  0.26350752     0.16200
C827        C  0.92906942  0.44300796  0.24867851     0.25600
C828        C  0.90253825  0.44534826  0.25178187    -0.40600
C829        C  0.89011158  0.42967484  0.26971977     0.32600
C830        C  0.90400177  0.41252250  0.28456720     0.14300
F831        F  0.96843734  0.42417162  0.26053637    -0.13000
F832        F  0.86448371  0.43067442  0.27271451    -0.13500
F833        F  0.94188524  0.45784487  0.23183353    -0.15800
F834        F  0.89168867  0.39756949  0.30168259    -0.14400
F835        F  0.94244272  0.42120835  0.33337085    -0.14400
F836        F  0.97940810  0.33351309  0.29012617    -0.15800
C837        C  0.79108259  0.41513854  0.16156647     0.14300
C838        C  0.79887419  0.41096686  0.13625854     0.01200
C839        C  0.82105317  0.42267750  0.12722118     0.16200
C840        C  0.83480296  0.43911289  0.14296661     0.25600
C841        C  0.82651590  0.44419989  0.16815327    -0.40700
C842        C  0.80476272  0.43155986  0.17741105     0.32700
C843        C  0.78321445  0.39531074  0.11893281     0.01300
F844        F  0.82885565  0.41898498  0.10274018    -0.13000
F845        F  0.79647734  0.43518190  0.20172925    -0.13500
C846        C  0.75833084  0.40278886  0.11284779     0.16200
C847        C  0.74354740  0.38843716  0.09597798     0.25600
C848        C  0.75344314  0.36622337  0.08483222    -0.40600
C849        C  0.77849983  0.35880513  0.09113143     0.32600
C850        C  0.79320100  0.37325845  0.10798043     0.14300
F851        F  0.74856568  0.42443296  0.12279513    -0.13000
F852        F  0.78911860  0.33781237  0.08067729    -0.13500
F853        F  0.71963455  0.39648800  0.09050825    -0.15800
F854        F  0.81723211  0.36568629  0.11367440    -0.14400
F855        F  0.77006770  0.40336970  0.17086249    -0.14400
F856        F  0.85571725  0.45062916  0.13312853    -0.15800
C857        C  0.66127320  0.24936542  0.10886409     0.14300
C858        C  0.63865919  0.26013741  0.11802584     0.01200
C859        C  0.63233991  0.28495963  0.11093389     0.16200
C860        C  0.64818802  0.29873345  0.09466054     0.25600
C861        C  0.67064332  0.28781328  0.08483686    -0.40700
C862        C  0.67709108  0.26298927  0.09237000     0.32700
C863        C  0.62119007  0.24525048  0.13428527     0.01300
F864        F  0.61030563  0.29561684  0.11909969    -0.13000
F865        F  0.69839547  0.25155688  0.08340854    -0.13500
C866        C  0.61379461  0.25434175  0.15838046     0.16200
C867        C  0.59643381  0.24078574  0.17325816     0.25600
C868        C  0.58624183  0.21766625  0.16437446    -0.40600
C869        C  0.59403449  0.20848828  0.14026828     0.32600
C870        C  0.61121742  0.22222302  0.12538429     0.14300
F871        F  0.62347708  0.27638950  0.16756452    -0.13000
F872        F  0.58482644  0.18638038  0.13075809    -0.13500
F873        F  0.58950151  0.25056030  0.19623509    -0.15800
F874        F  0.61755945  0.21335187  0.10185801    -0.14400
F875        F  0.66801087  0.22553828  0.11585366    -0.14400
F876        F  0.64118257  0.32265256  0.08829147    -0.15800
C877        C  0.45158516  0.13963092  0.77503481     0.14300
C878        C  0.43857534  0.12018801  0.78797268     0.01200
C879        C  0.44088159  0.11833442  0.81466046     0.16200
C880        C  0.45699200  0.13462547  0.82805104     0.25600
C881        C  0.47156413  0.15295803  0.81497514    -0.40700
C882        C  0.46799285  0.15587583  0.78839745     0.32700
C883        C  0.42455358  0.10034693  0.77367605     0.01300
F884        F  0.42870573  0.09968028  0.82769519    -0.13000
F885        F  0.48129339  0.17352363  0.77506077    -0.13500
C886        C  0.43730684  0.08559965  0.75540887     0.16200
C887        C  0.42508287  0.06518299  0.74362327     0.25600
C888        C  0.39979606  0.05891197  0.75004736    -0.40600
C889        C  0.38695859  0.07395161  0.76816891     0.32600
C890        C  0.39918310  0.09452109  0.77975281     0.14300
F891        F  0.46206547  0.09030884  0.74972110    -0.13000
F892        F  0.36244138  0.06897600  0.77460775    -0.13500
F893        F  0.43835758  0.05112524  0.72651266    -0.15800
F894        F  0.38625601  0.10875585  0.79699492    -0.14400
F895        F  0.44896240  0.14237623  0.74932644    -0.14400
F896        F  0.45891168  0.13177390  0.85381210    -0.15800
C897        C  0.66382862  0.24668851  0.95380530     0.14300
C898        C  0.64587371  0.25918492  0.93845067     0.01200
C899        C  0.64307336  0.28549701  0.94054557     0.16200
C900        C  0.65725408  0.29905547  0.95852176     0.25600
C901        C  0.67463073  0.28653860  0.97466629    -0.40700
C902        C  0.67821774  0.26022823  0.97171213     0.32700
C903        C  0.62781246  0.24471842  0.92251493     0.01300
F904        F  0.62563363  0.29787708  0.92601651    -0.13000
F905        F  0.69478438  0.24739060  0.98685973    -0.13500
C906        C  0.60994188  0.22897032  0.93445030     0.16200
C907        C  0.59052516  0.21774069  0.92021681     0.25600
C908        C  0.58863150  0.22198720  0.89362419    -0.40600
C909        C  0.60709534  0.23719957  0.88155390     0.32600
C910        C  0.62653975  0.24848468  0.89594234     0.14300
F911        F  0.61057445  0.22544911  0.96019728    -0.13000
F912        F  0.60643133  0.24109203  0.85587835    -0.13500
F913        F  0.57297449  0.20355225  0.93277947    -0.15800
F914        F  0.64402072  0.26328290  0.88402717    -0.14400
F915        F  0.66693056  0.22124064  0.95189992    -0.14400
F916        F  0.65368918  0.32444804  0.96025920    -0.15800
C917        C  0.46038727  0.24657477  0.93252661     0.14300
C918        C  0.44533951  0.26465120  0.92011285     0.01200
C919        C  0.44775611  0.26837194  0.89366061     0.16200
C920        C  0.46486943  0.25362225  0.87961070     0.25600
C921        C  0.47968672  0.23505987  0.89201919    -0.40700
C922        C  0.47743306  0.23192903  0.91868488     0.32700
C923        C  0.42712297  0.27919389  0.93537592     0.01300
F924        F  0.43320106  0.28584771  0.88147063    -0.13000
F925        F  0.49200416  0.21493012  0.93154825    -0.13500
C926        C  0.43300646  0.30390742  0.94299921     0.16200
C927        C  0.41852143  0.31579875  0.96185373     0.25600
C928        C  0.39791762  0.30297888  0.97339692    -0.40600
C929        C  0.39128096  0.27866065  0.96443424     0.32600
C930        C  0.40585189  0.26690041  0.94564424     0.14300
F931        F  0.45364721  0.31594978  0.93320798    -0.13000
F932        F  0.37133816  0.26569814  0.97447881    -0.13500
F933        F  0.42518589  0.33954356  0.96921407    -0.15800
F934        F  0.39993578  0.24296227  0.93824932    -0.14400
F935        F  0.45859086  0.24321897  0.95823816    -0.14400
F936        F  0.46638595  0.25700181  0.85389654    -0.15800
C937        C  0.94799505  0.75496778  0.40668889     0.14300
C938        C  0.94592741  0.75093559  0.43317402     0.01200
C939        C  0.96053209  0.73191303  0.44477219     0.16200
C940        C  0.97711321  0.71720195  0.43023888     0.25600
C941        C  0.97944976  0.72119126  0.40365786    -0.40700
C942        C  0.96462410  0.74022330  0.39200655     0.32700
C943        C  0.92892661  0.76666141  0.44909116     0.01300
F944        F  0.95917338  0.72798617  0.47042256    -0.13000
F945        F  0.96588930  0.74433917  0.36638923    -0.13500
C946        C  0.90885366  0.75536157  0.46256144     0.16200
C947        C  0.89424603  0.76955981  0.47961062     0.25600
C948        C  0.89947739  0.79547866  0.48362529    -0.40600
C949        C  0.91934830  0.80686650  0.46960149     0.32600
C950        C  0.93386239  0.79256369  0.45244059     0.14300
F951        F  0.90364610  0.73036310  0.45946357    -0.13000
F952        F  0.92495416  0.83177946  0.47258811    -0.13500
F953        F  0.87553866  0.75757835  0.49280048    -0.15800
F954        F  0.95339257  0.80378283  0.43978491    -0.14400
F955        F  0.93363649  0.77294684  0.39502471    -0.14400
F956        F  0.99140658  0.69951757  0.44245027    -0.15800
C957        C  0.77927385  0.88018142  0.45930360     0.14300
C958        C  0.78966911  0.90189102  0.44792048     0.01200
C959        C  0.81469222  0.90912147  0.45384180     0.16200
C960        C  0.82908401  0.89498473  0.47112143     0.25600
C961        C  0.81854811  0.87346603  0.48307313    -0.40700
C962        C  0.79347677  0.86616075  0.47683593     0.32700
C963        C  0.77413191  0.91753944  0.43057066     0.01300
F964        F  0.82496495  0.93036165  0.44345529    -0.13000
F965        F  0.78234852  0.84580088  0.48807802    -0.13500
C966        C  0.75100797  0.92770046  0.43908066     0.16200
C967        C  0.73670551  0.94335610  0.42312285     0.25600
C968        C  0.74548682  0.94945734  0.39837621    -0.40600
C969        C  0.76857542  0.93886357  0.38981357     0.32600
C970        C  0.78266881  0.92298307  0.40575822     0.14300
F971        F  0.74266112  0.92313838  0.46323367    -0.13000
F972        F  0.77772888  0.94389539  0.36606909    -0.13500
F973        F  0.71459785  0.95298697  0.43229872    -0.15800
F974        F  0.80471591  0.91287506  0.39694915    -0.14400
F975        F  0.75526012  0.87258742  0.45347685    -0.14400
F976        F  0.85324602  0.90260490  0.47623631    -0.15800
C977        C  0.90372795  0.75947786  0.62060269     0.14300
C978        C  0.92653131  0.76940425  0.63019955     0.01200
C979        C  0.93482058  0.79336727  0.62232181     0.16200
C980        C  0.92076800  0.80707378  0.60440123     0.25600
C981        C  0.89808794  0.79693658  0.59410489    -0.40700
C982        C  0.88953538  0.77310367  0.60277333     0.32700
C983        C  0.94291836  0.75373722  0.64649572     0.01300
F984        F  0.95714332  0.80298474  0.63115791    -0.13000
F985        F  0.86777257  0.76256051  0.59363208    -0.13500
C986        C  0.95446442  0.73225594  0.63605701     0.16200
C987        C  0.97131890  0.71797226  0.65065502     0.25600
C988        C  0.97692632  0.72495651  0.67613526    -0.40600
C989        C  0.96475459  0.74629486  0.68671577     0.32600
C990        C  0.94794007  0.76062785  0.67190108     0.14300
F991        F  0.95012056  0.72567229  0.61129565    -0.13000
F992        F  0.96922982  0.75348795  0.71125671    -0.13500
F993        F  0.98279022  0.69786819  0.63935554    -0.15800
F994        F  0.93664130  0.78131511  0.68225077    -0.14400
F995        F  0.89549920  0.73628072  0.62815994    -0.14400
F996        F  0.92979772  0.82995337  0.59678021    -0.15800
C997        C  0.09637785  0.74283090  0.62862723     0.14300
C998        C  0.11500256  0.75823978  0.63988457     0.01200
C999        C  0.11756380  0.75896532  0.66657739     0.16200
C1000       C  0.10155016  0.74436713  0.68197622     0.25600
C1001       C  0.08301949  0.72862915  0.67075259    -0.40700
C1002       C  0.08054401  0.72800837  0.64392633     0.32700
C1003       C  0.13259632  0.77250472  0.62354906     0.01300
F1004       F  0.13568895  0.77368755  0.67763769    -0.13000
F1005       F  0.06245940  0.71347000  0.63252126    -0.13500
C1006       C  0.12504994  0.79538492  0.61237398     0.16200
C1007       C  0.14121917  0.80793762  0.59536225     0.25600
C1008       C  0.16517140  0.79753059  0.58908174    -0.40600
C1009       C  0.17277028  0.77479104  0.60102896     0.32600
C1010       C  0.15658282  0.76245849  0.61809773     0.14300
F1011       F  0.10185214  0.80534365  0.61769767    -0.13000
F1012       F  0.19570068  0.76413959  0.59599363    -0.13500
F1013       F  0.13309336  0.82995309  0.58473294    -0.15800
F1014       F  0.16401830  0.74025150  0.62883065    -0.14400
F1015       F  0.09379066  0.74194886  0.60277596    -0.14400
F1016       F  0.10461475  0.74508892  0.70777523    -0.15800
C1017       C  0.13017479  0.58303776  0.80741923     0.14300
C1018       C  0.14216839  0.59862954  0.78937058     0.01200
C1019       C  0.16774943  0.59426882  0.78309340     0.16200
C1020       C  0.18105482  0.57425996  0.79442835     0.25600
C1021       C  0.16894364  0.55834329  0.81233420    -0.40700
C1022       C  0.14336830  0.56315362  0.81882427     0.32700
C1023       C  0.12706957  0.61786659  0.77564145     0.01300
F1024       F  0.17979259  0.60936869  0.76591096    -0.13000
F1025       F  0.13069604  0.54817445  0.83565690    -0.13500
C1026       C  0.11382135  0.63661567  0.78921286     0.16200
C1027       C  0.09626418  0.65211140  0.77663609     0.25600
C1028       C  0.09174379  0.64907677  0.75022607    -0.40600
C1029       C  0.10611267  0.63117072  0.73649351     0.32600
C1030       C  0.12355429  0.61569325  0.74911673     0.14300
F1031       F  0.11726645  0.63929384  0.81483758    -0.13000
F1032       F  0.10287898  0.62813205  0.71088608    -0.13500
F1033       F  0.08275121  0.66906219  0.79060576    -0.15800
F1034       F  0.13592326  0.59752909  0.73563791    -0.14400
F1035       F  0.10523937  0.58641368  0.81324516    -0.14400
F1036       F  0.20576889  0.57061481  0.78792531    -0.15800
C1037       C  0.81374885  0.90452040  0.62668636     0.14300
C1038       C  0.78752173  0.89989736  0.62862361     0.01200
C1039       C  0.77636858  0.88102352  0.61341216     0.16200
C1040       C  0.79102734  0.86745392  0.59590261     0.25600
C1041       C  0.81722629  0.87259077  0.59318572    -0.40700
C1042       C  0.82849715  0.89105399  0.60906882     0.32700
C1043       C  0.77137363  0.91616489  0.64483799     0.01300
F1044       F  0.75108475  0.87604430  0.61524094    -0.13000
F1045       F  0.85375830  0.89619321  0.60753712    -0.13500
C1046       C  0.75292138  0.93160275  0.63332263     0.16200
C1047       C  0.73797228  0.94768801  0.64814738     0.25600
C1048       C  0.74123594  0.94873764  0.67490095    -0.40600
C1049       C  0.75960559  0.93300006  0.68647437     0.32600
C1050       C  0.77454640  0.91683331  0.67151815     0.14300
F1051       F  0.74989676  0.93163373  0.60750272    -0.13000
F1052       F  0.76293596  0.93301091  0.71225230    -0.13500
F1053       F  0.72091133  0.96287513  0.63609549    -0.15800
F1054       F  0.79194390  0.90165258  0.68307006    -0.14400
F1055       F  0.82488672  0.92276804  0.64119002    -0.14400
F1056       F  0.77926939  0.84993755  0.58097631    -0.15800
C1057       C  0.61224235  0.10969695  0.82004759     0.14300
C1058       C  0.61386879  0.10929654  0.79331630     0.01200
C1059       C  0.59939689  0.12625253  0.77866107     0.16200
C1060       C  0.58301623  0.14325267  0.79066384     0.25600
C1061       C  0.58073254  0.14320023  0.81748940    -0.40700
C1062       C  0.59572741  0.12647296  0.83209767     0.32700
C1063       C  0.62939542  0.09001526  0.78066291     0.01300
F1064       F  0.60086103  0.12598446  0.75271675    -0.13000
F1065       F  0.59440503  0.12631505  0.85805182    -0.13500
C1066       C  0.61739876  0.07007195  0.76772280     0.16200
C1067       C  0.63187936  0.05166728  0.75549728     0.25600
C1068       C  0.65858522  0.05298738  0.75610150    -0.40600
C1069       C  0.67060333  0.07267974  0.76964553     0.32600
C1070       C  0.65602271  0.09116312  0.78182691     0.14300
F1071       F  0.59162568  0.06831047  0.76724446    -0.13000
F1072       F  0.69636206  0.07451435  0.77034290    -0.13500
F1073       F  0.61980258  0.03226008  0.74349959    -0.15800
F1074       F  0.66779560  0.11045131  0.79430811    -0.14400
F1075       F  0.62603337  0.09322409  0.83439530    -0.14400
F1076       F  0.56865297  0.15896045  0.77600710    -0.15800
C1077       C  0.77288907  0.08663410  0.67305039     0.14300
C1078       C  0.76480055  0.09246855  0.64814438     0.01200
C1079       C  0.74230957  0.08182964  0.63863307     0.16200
C1080       C  0.72864126  0.06450376  0.65329342     0.25600
C1081       C  0.73727773  0.05744911  0.67791094    -0.40700
C1082       C  0.75917795  0.06935303  0.68794038     0.32700
C1083       C  0.78112455  0.10727206  0.63087093     0.01300
F1084       F  0.73430646  0.08720716  0.61450693    -0.13000
F1085       F  0.76765903  0.06400015  0.71189695    -0.13500
C1086       C  0.80321492  0.09617906  0.62104747     0.16200
C1087       C  0.81773184  0.10883374  0.60274698     0.25600
C1088       C  0.81043211  0.13303656  0.59395136    -0.40600
C1089       C  0.78826866  0.14421070  0.60419117     0.32600
C1090       C  0.77369561  0.13131564  0.62239207     0.14300
F1091       F  0.81016862  0.07254269  0.62849365    -0.13000
F1092       F  0.78040910  0.16745685  0.59645128    -0.13500
F1093       F  0.83858422  0.09697238  0.59328649    -0.15800
F1094       F  0.75214782  0.14214360  0.63155252    -0.14400
F1095       F  0.79440584  0.09726790  0.68266505    -0.14400
F1096       F  0.70749527  0.05395614  0.64278309    -0.15800
C1097       C  0.61023508  0.86789983  0.78802354     0.14300
C1098       C  0.61102010  0.89358857  0.79468901     0.01200
C1099       C  0.59558285  0.90260219  0.81450282     0.16200
C1100       C  0.57956011  0.88608181  0.82767387     0.25600
C1101       C  0.57881456  0.86015616  0.82125741    -0.40700
C1102       C  0.59430017  0.85125697  0.80120801     0.32700
C1103       C  0.62765922  0.91113477  0.78066964     0.01300
F1104       F  0.59560949  0.92757021  0.82066999    -0.13000
F1105       F  0.59430734  0.82643277  0.79450322    -0.13500
C1106       C  0.62268408  0.91660681  0.75492906     0.16200
C1107       C  0.63810012  0.93359550  0.74164578     0.25600
C1108       C  0.65890988  0.94543450  0.75395129    -0.40600
C1109       C  0.66384603  0.93970812  0.77985429     0.32600
C1110       C  0.64827156  0.92273035  0.79307360     0.14300
F1111       F  0.60245640  0.90591772  0.74283003    -0.13000
F1112       F  0.68331177  0.95093602  0.79266295    -0.13500
F1113       F  0.63239896  0.93851484  0.71677594    -0.15800
F1114       F  0.65327068  0.91757128  0.81804274    -0.14400
F1115       F  0.62514442  0.85892539  0.76888604    -0.14400
F1116       F  0.56430686  0.89568440  0.84622175    -0.15800
C1117       C  0.44292480  0.92418614  0.76328251     0.14300
C1118       C  0.42960709  0.90625615  0.77790449     0.01200
C1119       C  0.40306908  0.90790104  0.77987810     0.16200
C1120       C  0.38994589  0.92737519  0.76756360     0.25600
C1121       C  0.40320677  0.94547782  0.75295672    -0.40700
C1122       C  0.42983178  0.94363909  0.75083513     0.32700
C1123       C  0.44355502  0.88665526  0.79223698     0.01300
F1124       F  0.38987220  0.89045544  0.79358661    -0.13000
F1125       F  0.44326951  0.96106194  0.73733051    -0.13500
C1126       C  0.44335603  0.88696797  0.81906337     0.16200
C1127       C  0.45811503  0.86980359  0.83288193     0.25600
C1128       C  0.47344229  0.85202406  0.82005034    -0.40600
C1129       C  0.47262407  0.85098700  0.79309368     0.32600
C1130       C  0.45786565  0.86828617  0.77932014     0.14300
F1131       F  0.42971814  0.90470039  0.83187436    -0.13000
F1132       F  0.48709411  0.83417233  0.77995517    -0.13500
F1133       F  0.45783552  0.87104195  0.85883881    -0.15800
F1134       F  0.45792721  0.86746926  0.75334441    -0.14400
F1135       F  0.46868803  0.92324193  0.76167896    -0.14400
F1136       F  0.36420001  0.92812114  0.76942728    -0.15800
C1137       C  0.44562112  0.76321790  0.92997052     0.14300
C1138       C  0.44137422  0.73805896  0.92262342     0.01200
C1139       C  0.45432095  0.72812174  0.90145936     0.16200
C1140       C  0.47175391  0.74307862  0.88803685     0.25600
C1141       C  0.47657769  0.76823654  0.89574275    -0.40700
C1142       C  0.46301098  0.77818327  0.91672417     0.32700
C1143       C  0.42482919  0.72191772  0.93844523     0.01300
F1144       F  0.45020102  0.70385260  0.89396397    -0.13000
F1145       F  0.46660039  0.80238538  0.92470068    -0.13500
C1146       C  0.39915910  0.72820708  0.94189070     0.16200
C1147       C  0.38453145  0.71539312  0.96001464     0.25600
C1148       C  0.39546551  0.69615162  0.97515403    -0.40600
C1149       C  0.42087402  0.68896632  0.97054089     0.32600
C1150       C  0.43540433  0.70181343  0.95236561     0.14300
F1151       F  0.38848209  0.74728248  0.92816967    -0.13000
F1152       F  0.43218147  0.67040332  0.98446345    -0.13500
F1153       F  0.35981701  0.72220057  0.96300690    -0.15800
F1154       F  0.46030327  0.69565044  0.94947237    -0.14400
F1155       F  0.43353442  0.77305487  0.95064825    -0.14400
F1156       F  0.48428252  0.73266772  0.86794467    -0.15800
C1157       C  0.66828490  0.74983188  0.94905335     0.14300
C1158       C  0.64625078  0.73861295  0.93881286     0.01200
C1159       C  0.64034541  0.71351913  0.94525014     0.16200
C1160       C  0.65567186  0.70006350  0.96224985     0.25600
C1161       C  0.67719137  0.71154315  0.97358402    -0.40700
C1162       C  0.68363651  0.73645894  0.96631439     0.32700
C1163       C  0.62817537  0.75340977  0.92306624     0.01300
F1164       F  0.61893429  0.70234347  0.93600741    -0.13000
F1165       F  0.70433023  0.74823042  0.97638324    -0.13500
C1166       C  0.62036457  0.74454792  0.89895622     0.16200
C1167       C  0.60075052  0.75666336  0.88564849     0.25600
C1168       C  0.58865145  0.77809004  0.89615745    -0.40600
C1169       C  0.59735692  0.78749925  0.91991297     0.32600
C1170       C  0.61679455  0.77519603  0.93322443     0.14300
F1171       F  0.63150299  0.72383678  0.88846842    -0.13000
F1172       F  0.58673022  0.80829473  0.93075215    -0.13500
F1173       F  0.59341855  0.74704972  0.86269236    -0.15800
F1174       F  0.62366080  0.78391858  0.95669358    -0.14400
F1175       F  0.67470793  0.77390693  0.94262410    -0.14400
F1176       F  0.64890308  0.67591043  0.96798616    -0.15800
C1177       C  0.76196268  0.59214608  0.10646099     0.14300
C1178       C  0.78005535  0.60344171  0.12258559     0.01200
C1179       C  0.78467132  0.62955696  0.12069027     0.16200
C1180       C  0.77154013  0.64417021  0.10265172     0.25600
C1181       C  0.75352051  0.63283771  0.08624535    -0.40700
C1182       C  0.74879300  0.60664183  0.08850126     0.32700
C1183       C  0.79492003  0.58752309  0.14036954     0.01300
F1184       F  0.80184991  0.64088888  0.13639864    -0.13000
F1185       F  0.73204779  0.59473932  0.07273897    -0.13500
C1186       C  0.82129004  0.58511807  0.13717193     0.16200
C1187       C  0.83509732  0.56807014  0.15215874     0.25600
C1188       C  0.82272886  0.55305409  0.17066489    -0.40600
C1189       C  0.79635656  0.55619715  0.17440881     0.32600
C1190       C  0.78260904  0.57324723  0.15933045     0.14300
F1191       F  0.83353086  0.59857109  0.11877815    -0.13000
F1192       F  0.78361247  0.54217256  0.19200440    -0.13500
F1193       F  0.86056384  0.56618464  0.14834764    -0.15800
F1194       F  0.75714252  0.57555954  0.16294676    -0.14400
F1195       F  0.75769300  0.56680563  0.10749567    -0.14400
F1196       F  0.77633142  0.66939548  0.10143743    -0.15800
C1197       C  0.61250157  0.77658554  0.12075680     0.14300
C1198       C  0.62501215  0.75569595  0.13148277     0.01200
C1199       C  0.62037422  0.74901091  0.15702266     0.16200
C1200       C  0.60306804  0.76280776  0.17162661     0.25600
C1201       C  0.59015772  0.78362727  0.16086770    -0.40700
C1202       C  0.59529389  0.79050104  0.13528398     0.32700
C1203       C  0.64235169  0.74048677  0.11570158     0.01300
F1204       F  0.63274513  0.72914789  0.16784200    -0.13000
F1205       F  0.58323390  0.81027844  0.12394503    -0.13500
C1206       C  0.66359472  0.75179912  0.10422302     0.16200
C1207       C  0.67920693  0.73776681  0.08805614     0.25600
C1208       C  0.67380077  0.71207184  0.08311704    -0.40600
C1209       C  0.65278000  0.70065549  0.09524037     0.32600
C1210       C  0.63715697  0.71480929  0.11130826     0.14300
F1211       F  0.66910331  0.77655425  0.10854626    -0.13000
F1212       F  0.64712372  0.67585043  0.09146140    -0.13500
F1213       F  0.69915442  0.74964082  0.07673083    -0.15800
F1214       F  0.61643472  0.70364354  0.12195015    -0.14400
F1215       F  0.61638867  0.78305975  0.09590344    -0.14400
F1216       F  0.59909279  0.75576533  0.19628600    -0.15800
C1217       C  0.97365824  0.62058767  0.79389594     0.14300
C1218       C  0.95042158  0.61293834  0.78294032     0.01200
C1219       C  0.94305927  0.62274595  0.75904263     0.16200
C1220       C  0.95927095  0.63897641  0.74572407     0.25600
C1221       C  0.98268326  0.64609392  0.75644583    -0.40700
C1222       C  0.98957774  0.63731364  0.78081117     0.32700
C1223       C  0.93473768  0.59349762  0.79565202     0.01300
F1224       F  0.92032631  0.61630495  0.74849285    -0.13000
F1225       F  0.01239904  0.64372091  0.79119600    -0.13500
C1226       C  0.92650939  0.59692510  0.82098421     0.16200
C1227       C  0.91322020  0.57766978  0.83347845     0.25600
C1228       C  0.90761053  0.55501648  0.82061063    -0.40600
C1229       C  0.91501120  0.55189252  0.79506620     0.32600
C1230       C  0.92879528  0.57087808  0.78274347     0.14300
F1231       F  0.93122797  0.61895722  0.83351262    -0.13000
F1232       F  0.90974793  0.53004806  0.78242352    -0.13500
F1233       F  0.90534626  0.58129993  0.85794394    -0.15800
F1234       F  0.93712366  0.56681977  0.75850898    -0.14400
F1235       F  0.98152712  0.61082795  0.81661538    -0.14400
F1236       F  0.95221853  0.64768669  0.72230884    -0.15800
C1237       C  0.79316216  0.58233009  0.90171348     0.14300
C1238       C  0.80331316  0.59235328  0.92435868     0.01200
C1239       C  0.82779825  0.58542328  0.93227657     0.16200
C1240       C  0.84155245  0.56758601  0.91839796     0.25600
C1241       C  0.83090551  0.55632362  0.89634237    -0.40700
C1242       C  0.80681049  0.56447401  0.88774903     0.32700
C1243       C  0.78727504  0.60763142  0.94129563     0.01300
F1244       F  0.83783168  0.59492819  0.95424258    -0.13000
F1245       F  0.79594640  0.55462177  0.86635619    -0.13500
C1246       C  0.76576589  0.59653174  0.95243617     0.16200
C1247       C  0.75120825  0.61002150  0.96992997     0.25600
C1248       C  0.75792361  0.63500792  0.97658698    -0.40600
C1249       C  0.77948052  0.64617767  0.96509658     0.32600
C1250       C  0.79405714  0.63250676  0.94761291     0.14300
F1251       F  0.75938790  0.57218903  0.94702796    -0.13000
F1252       F  0.78659409  0.67025302  0.97075308    -0.13500
F1253       F  0.73098581  0.59821695  0.98082664    -0.15800
F1254       F  0.81483091  0.64348498  0.93687904    -0.14400
F1255       F  0.76963304  0.58930343  0.89359354    -0.14400
F1256       F  0.86499422  0.56095899  0.92703979    -0.15800
C1257       C  0.79125365  0.41846385  0.90236036     0.14300
C1258       C  0.79952683  0.41041713  0.92652008     0.01200
C1259       C  0.82263996  0.41940022  0.93638125     0.16200
C1260       C  0.83710324  0.43680659  0.92251935     0.25600
C1261       C  0.82863983  0.44550301  0.89840942    -0.40700
C1262       C  0.80568286  0.43575877  0.88833280     0.32700
C1263       C  0.78318154  0.39414780  0.94235525     0.01300
F1264       F  0.83069519  0.41203966  0.95994812    -0.13000
F1265       F  0.79687946  0.44312709  0.86505003    -0.13500
C1266       C  0.79093228  0.36965942  0.94906433     0.16200
C1267       C  0.77620298  0.35505996  0.96572574     0.25600
C1268       C  0.75353423  0.36492132  0.97613817    -0.40600
C1269       C  0.74556896  0.38935280  0.96865094     0.32600
C1270       C  0.76027919  0.40375033  0.95191254     0.14300
F1271       F  0.81288941  0.35998466  0.93957893    -0.13000
F1272       F  0.72390476  0.39979270  0.97800310    -0.13500
F1273       F  0.78435919  0.33144418  0.97181385    -0.15800
F1274       F  0.75264891  0.42754388  0.94576478    -0.14400
F1275       F  0.76899451  0.40973351  0.89249100    -0.14400
F1276       F  0.85904283  0.44551130  0.93310177    -0.15800
C1277       C  0.96155081  0.36752609  0.78936001     0.14300
C1278       C  0.94760407  0.38728632  0.77819249     0.01200
C1279       C  0.94924986  0.39147925  0.75173470     0.16200
C1280       C  0.96549972  0.37687657  0.73677791     0.25600
C1281       C  0.98064476  0.35791686  0.74809251    -0.40700
C1282       C  0.97798484  0.35295505  0.77448331     0.32700
C1283       C  0.93303819  0.40496830  0.79426429     0.01300
F1284       F  0.93595676  0.41052508  0.74051298    -0.13000
F1285       F  0.99181966  0.33458017  0.78616565    -0.13500
C1286       C  0.94558504  0.41903235  0.81327389     0.16200
C1287       C  0.93265374  0.43777039  0.82676979     0.25600
C1288       C  0.90691961  0.44291220  0.82131221    -0.40600
C1289       C  0.89421634  0.42823086  0.80270515     0.32600
C1290       C  0.90718068  0.40938047  0.78937858     0.14300
F1291       F  0.97073693  0.41540026  0.81797186    -0.13000
F1292       F  0.86922802  0.43203251  0.79732895    -0.13500
F1293       F  0.94567951  0.45145128  0.84447621    -0.15800
F1294       F  0.89454397  0.39554587  0.77150368    -0.14400
F1295       F  0.95958570  0.36267267  0.81480693    -0.14400
F1296       F  0.96657588  0.38162885  0.71126038    -0.15800
loop_ 
_geom_bond_atom_site_label_1 
_geom_bond_atom_site_label_2 
_geom_bond_distance 
_geom_bond_site_symmetry_2 
_ccdc_geom_bond_type 
O1           Cu9   1.995       .  S
O1           C11   1.277       .  A
O2           Cu9   1.991       .  S
O2           C12   1.276       .  A
O3           Cu9   1.998       .  S
O3           C13   1.277       .  A
O4           Cu9   1.997       .  S
O4           C14   1.276       .  A
O5          Cu10   1.997       .  S
O5           C14   1.276       .  A
O6          Cu10   2.000       .  S
O6           C13   1.277       .  A
O7          Cu10   1.999       .  S
O7           C12   1.277       .  A
O8          Cu10   1.990       .  S
O8           C11   1.276       .  A
Cu9         Cu10   2.371       .  S
C11        C1241   1.478       .  S
C12        C1288   1.477       .  S
C13        C1261   1.483       .  S
C14        C1228   1.461       .  S
O15         Cu23   1.991       .  S
O15          C25   1.276       .  A
O16         Cu23   1.992       .  S
O16          C26   1.276   1_554  A
O17         Cu23   2.020       .  S
O17          C27   1.279   1_554  A
O18         Cu23   2.018       .  S
O18          C28   1.280       .  A
O19         Cu24   1.989       .  S
O19          C28   1.275       .  A
O20         Cu24   1.987       .  S
O20          C27   1.276   1_554  A
O21         Cu24   1.991       .  S
O21          C26   1.277   1_554  A
O22         Cu24   1.994       .  S
O22          C25   1.277       .  A
Cu23        Cu24   2.368       .  S
C25        C1208   1.477       .  S
C26        C1248   1.477       .  S
C27        C1161   1.486       .  S
C28        C1181   1.481       .  S
O29         Cu37   2.010       .  S
O29          C39   1.278       .  A
O30         Cu37   2.004       .  S
O30          C40   1.278       .  A
O31         Cu37   2.011       .  S
O31          C41   1.279       .  A
O32         Cu37   2.008       .  S
O32          C42   1.278       .  A
O33         Cu38   1.991       .  S
O33          C42   1.276       .  A
O34         Cu38   1.996       .  S
O34          C41   1.276       .  A
O35         Cu38   1.991       .  S
O35          C40   1.276       .  A
O36         Cu38   1.991       .  S
O36          C39   1.276       .  A
Cu37        Cu38   2.368       .  S
C39        C1141   1.482       .  S
C40        C1101   1.478       .  S
C41        C1168   1.486       .  S
C42        C1128   1.479       .  S
O43         Cu51   1.989       .  S
O43          C53   1.276       .  A
O44         Cu51   1.997   1_565  S
O44          C54   1.277       .  A
O45         Cu51   1.982   1_565  S
O45          C55   1.274       .  A
O46         Cu51   1.984       .  S
O46          C56   1.275       .  A
O47         Cu52   2.017       .  S
O47          C56   1.279       .  A
O48         Cu52   2.017   1_565  S
O48          C55   1.280       .  A
O49         Cu52   2.011   1_565  S
O49          C54   1.278       .  A
O50         Cu52   2.001       .  S
O50          C53   1.277       .  A
Cu51        Cu52   2.369       .  S
C53        C1068   1.467       .  S
C54        C1048   1.481       .  S
C55        C1108   1.482       .  S
C56        C1081   1.484       .  S
O57         Cu65   1.994       .  S
O57          C67   1.276       .  A
O58         Cu65   1.993       .  S
O58          C68   1.276       .  A
O59         Cu65   1.980       .  S
O59          C69   1.275   1_455  A
O60         Cu65   1.993       .  S
O60          C70   1.277       .  A
O61         Cu66   2.005       .  S
O61          C70   1.278       .  A
O62         Cu66   2.010       .  S
O62          C69   1.279   1_455  A
O63         Cu66   2.002       .  S
O63          C68   1.276       .  A
O64         Cu66   2.001       .  S
O64          C67   1.277       .  A
Cu65        Cu66   2.374       .  S
C67        C1001   1.471       .  S
C68        C1221   1.461   1_455  S
C69         C988   1.479       .  S
C70        C1028   1.478       .  S
O71         Cu79   2.020       .  S
O71          C81   1.280       .  A
O72         Cu79   2.017       .  S
O72          C82   1.279       .  A
O73         Cu79   1.992       .  S
O73          C83   1.276       .  A
O74         Cu79   1.994       .  S
O74          C84   1.276       .  A
O75         Cu80   1.994       .  S
O75          C84   1.276       .  A
O76         Cu80   1.992       .  S
O76          C83   1.276       .  A
O77         Cu80   1.998       .  S
O77          C82   1.276       .  A
O78         Cu80   1.999       .  S
O78          C81   1.277       .  A
Cu79        Cu80   2.367       .  S
C81         C948   1.487       .  S
C82        C1041   1.484       .  S
C83         C981   1.479       .  S
C84         C961   1.478       .  S
O85         Cu93   2.024       .  S
O85          C95   1.280       .  A
O86         Cu93   2.024       .  S
O86          C96   1.280       .  A
O87         Cu93   2.008       .  S
O87          C97   1.278       .  A
O88         Cu93   2.002       .  S
O88          C98   1.277       .  A
O89         Cu94   1.984       .  S
O89          C98   1.275       .  A
O90         Cu94   1.983       .  S
O90          C97   1.276       .  A
O91         Cu94   1.986       .  S
O91          C96   1.275       .  A
O92         Cu94   1.983       .  S
O92          C95   1.275       .  A
Cu93        Cu94   2.371       .  S
C95         C908   1.481       .  S
C96         C881   1.484       .  S
C97         C921   1.474       .  S
C98        C1061   1.470       .  S
O99        Cu107   1.993       .  S
O99         C109   1.276       .  A
O100       Cu107   1.987       .  S
O100        C110   1.276   1_554  A
O101       Cu107   2.007       .  S
O101        C111   1.280   1_554  A
O102       Cu107   2.010       .  S
O102        C112   1.278       .  A
O103       Cu108   1.998       .  S
O103        C112   1.277       .  A
O104       Cu108   1.998       .  S
O104        C111   1.275   1_554  A
O105       Cu108   2.010       .  S
O105        C110   1.278   1_554  A
O106       Cu108   2.012       .  S
O106        C109   1.279       .  A
Cu107      Cu108   2.367       .  S
C109        C861   1.485       .  S
C110       C1268   1.483       .  S
C111        C901   1.480       .  S
C112        C848   1.485       .  S
O113       Cu121   2.011       .  S
O113        C123   1.280       .  A
O114       Cu121   2.013       .  S
O114        C124   1.279       .  A
O115       Cu121   2.003       .  S
O115        C125   1.277       .  A
O116       Cu121   2.003       .  S
O116        C126   1.277       .  A
O117       Cu122   2.005       .  S
O117        C126   1.278       .  A
O118       Cu122   2.004       .  S
O118        C125   1.278       .  A
O119       Cu122   1.988       .  S
O119        C124   1.275       .  A
O120       Cu122   1.992       .  S
O120        C123   1.275       .  A
Cu121      Cu122   2.368       .  S
C123        C841   1.484       .  S
C124        C808   1.482       .  S
C125       C1188   1.482       .  S
C126        C828   1.482       .  S
O127       Cu135   1.995       .  S
O127        C137   1.276   1_455  A
O128       Cu135   1.994       .  S
O128        C138   1.276       .  A
O129       Cu135   2.004       .  S
O129        C139   1.278       .  A
O130       Cu135   2.006       .  S
O130        C140   1.279   1_455  A
O131       Cu136   1.998       .  S
O131        C140   1.276   1_455  A
O132       Cu136   1.998       .  S
O132        C139   1.276       .  A
O133       Cu136   2.012       .  S
O133        C138   1.279       .  A
O134       Cu136   2.017       .  S
O134        C137   1.279   1_455  A
Cu135      Cu136   2.367       .  S
C137        C941   1.483       .  S
C138        C781   1.484       .  S
C139        C761   1.484       .  S
C140        C801   1.480       .  S
O141       Cu149   2.001       .  S
O141        C151   1.277       .  A
O142       Cu149   2.003       .  S
O142        C152   1.277       .  A
O143       Cu149   2.007       .  S
O143        C153   1.279       .  A
O144       Cu149   2.013       .  S
O144        C154   1.278       .  A
O145       Cu150   1.992       .  S
O145        C154   1.277       .  A
O146       Cu150   1.997       .  S
O146        C153   1.276       .  A
O147       Cu150   2.008       .  S
O147        C152   1.278       .  A
O148       Cu150   2.010       .  S
O148        C151   1.278       .  A
Cu149      Cu150   2.368       .  S
C151        C768   1.486       .  S
C152        C728   1.482       .  S
C153       C1008   1.484       .  S
C154        C741   1.479       .  S
O155       Cu163   2.001       .  S
O155        C165   1.277       .  A
O156       Cu163   2.001   1_545  S
O156        C166   1.277       .  A
O157       Cu163   2.004   1_545  S
O157        C167   1.277       .  A
O158       Cu163   2.006       .  S
O158        C168   1.278       .  A
O159       Cu164   2.008       .  S
O159        C168   1.278       .  A
O160       Cu164   2.011   1_545  S
O160        C167   1.279       .  A
O161       Cu164   1.999   1_545  S
O161        C166   1.277       .  A
O162       Cu164   2.002       .  S
O162        C165   1.277       .  A
Cu163      Cu164   2.369       .  S
C165       C1121   1.475       .  S
C166        C708   1.483       .  S
C167        C888   1.485       .  S
C168        C721   1.483       .  S
O169       Cu177   2.003       .  S
O169        C179   1.277       .  A
O170       Cu177   1.998   1_565  S
O170        C180   1.277       .  A
O171       Cu177   2.004   1_565  S
O171        C181   1.278       .  A
O172       Cu177   2.001       .  S
O172        C182   1.277       .  A
O173       Cu178   1.994       .  S
O173        C182   1.276       .  A
O174       Cu178   1.999   1_565  S
O174        C181   1.277       .  A
O175       Cu178   1.995   1_565  S
O175        C180   1.277       .  A
O176       Cu178   1.997       .  S
O176        C179   1.277       .  A
Cu177      Cu178   2.370       .  S
C179        C681   1.477       .  S
C180        C968   1.481       .  S
C181        C661   1.480       .  S
C182        C648   1.476       .  S
O183       Cu191   2.006       .  S
O183        C193   1.278       .  A
O184       Cu191   2.005       .  S
O184        C194   1.278       .  A
O185       Cu191   2.006       .  S
O185        C195   1.277       .  A
O186       Cu191   2.004       .  S
O186        C196   1.277       .  A
O187       Cu192   2.008       .  S
O187        C196   1.278       .  A
O188       Cu192   2.007       .  S
O188        C195   1.279       .  A
O189       Cu192   1.983       .  S
O189        C194   1.275       .  A
O190       Cu192   1.981       .  S
O190        C193   1.275       .  A
Cu191      Cu192   2.368       .  S
C193        C621   1.476       .  S
C194       C1201   1.478       .  S
C195        C668   1.488       .  S
C196        C601   1.485       .  S
O197       Cu205   1.996       .  S
O197        C207   1.277       .  A
O198       Cu205   1.996       .  S
O198        C208   1.277       .  A
O199       Cu205   1.985       .  S
O199        C209   1.275       .  A
O200       Cu205   1.988       .  S
O200        C210   1.276       .  A
O201       Cu206   2.016       .  S
O201        C210   1.279       .  A
O202       Cu206   2.015       .  S
O202        C209   1.279       .  A
O203       Cu206   2.001       .  S
O203        C208   1.277       .  A
O204       Cu206   2.003       .  S
O204        C207   1.277       .  A
Cu205      Cu206   2.367       .  S
C207        C541   1.483       .  S
C208        C568   1.478       .  S
C209       C1021   1.481       .  S
C210        C581   1.485       .  S
O211       Cu219   1.999       .  S
O211        C221   1.277   1_554  A
O212       Cu219   2.002       .  S
O212        C222   1.277       .  A
O213       Cu219   2.008       .  S
O213        C223   1.278       .  A
O214       Cu219   1.999       .  S
O214        C224   1.277       .  A
O215       Cu220   2.004       .  S
O215        C224   1.277       .  A
O216       Cu220   2.004       .  S
O216        C223   1.278       .  A
O217       Cu220   1.999       .  S
O217        C222   1.277       .  A
O218       Cu220   1.997       .  S
O218        C221   1.277   1_554  A
Cu219      Cu220   2.370       .  S
C221       C1148   1.479       .  S
C222        C521   1.477       .  S
C223        C608   1.481       .  S
C224        C561   1.479   1_554  S
O225       Cu233   2.004       .  S
O225        C235   1.278       .  A
O226       Cu233   2.003       .  S
O226        C236   1.277       .  A
O227       Cu233   2.006       .  S
O227        C237   1.278       .  A
O228       Cu233   2.008       .  S
O228        C238   1.278       .  A
O229       Cu234   1.993       .  S
O229        C238   1.276       .  A
O230       Cu234   1.986       .  S
O230        C237   1.276       .  A
O231       Cu234   1.994       .  S
O231        C236   1.277       .  A
O232       Cu234   1.996       .  S
O232        C235   1.277       .  A
Cu233      Cu234   2.369       .  S
C235        C528   1.476       .  S
C236        C508   1.480       .  S
C237        C481   1.477       .  S
C238        C788   1.482       .  S
O239       Cu247   1.997       .  S
O239        C249   1.276   1_554  A
O240       Cu247   1.996       .  S
O240        C250   1.277       .  A
O241       Cu247   2.012       .  S
O241        C251   1.279       .  A
O242       Cu247   2.009       .  S
O242        C252   1.278   1_554  A
O243       Cu248   1.999       .  S
O243        C252   1.277   1_554  A
O244       Cu248   2.005       .  S
O244        C251   1.278       .  A
O245       Cu248   1.996       .  S
O245        C250   1.276       .  A
O246       Cu248   1.996       .  S
O246        C249   1.277   1_554  A
Cu247      Cu248   2.367       .  S
C249        C928   1.481       .  S
C250        C488   1.477       .  S
C251        C461   1.490       .  S
C252        C588   1.485       .  S
O253       Cu261   2.019       .  S
O253        C263   1.280       .  A
O254       Cu261   2.022       .  S
O254        C264   1.280       .  A
O255       Cu261   2.010       .  S
O255        C265   1.278       .  A
O256       Cu261   2.002       .  S
O256        C266   1.277       .  A
O257       Cu262   1.998       .  S
O257        C266   1.277       .  A
O258       Cu262   1.999       .  S
O258        C265   1.277       .  A
O259       Cu262   1.992       .  S
O259        C264   1.276       .  A
O260       Cu262   1.993       .  S
O260        C263   1.276       .  A
Cu261      Cu262   2.366       .  S
C263        C688   1.482       .  S
C264        C468   1.489       .  S
C265        C441   1.484       .  S
C266        C868   1.484       .  S
O267       Cu275   1.992       .  S
O267        C277   1.276       .  A
O268       Cu275   1.986       .  S
O268        C278   1.276   1_455  A
O269       Cu275   1.996       .  S
O269        C279   1.277   1_455  A
O270       Cu275   1.995       .  S
O270        C280   1.277       .  A
O271       Cu276   1.990       .  S
O271        C280   1.276       .  A
O272       Cu276   1.995       .  S
O272        C279   1.276   1_455  A
O273       Cu276   2.001       .  S
O273        C278   1.277   1_455  A
O274       Cu276   2.002       .  S
O274        C277   1.278       .  A
Cu275      Cu276   2.369       .  S
C277        C548   1.481       .  S
C278        C401   1.476       .  S
C279       C1281   1.479       .  S
C280        C428   1.474       .  S
O281       Cu289   2.006       .  S
O281        C291   1.278       .  A
O282       Cu289   2.011       .  S
O282        C292   1.279       .  A
O283       Cu289   1.999       .  S
O283        C293   1.277       .  A
O284       Cu289   1.998       .  S
O284        C294   1.277       .  A
O285       Cu290   1.989       .  S
O285        C294   1.276       .  A
O286       Cu290   1.988       .  S
O286        C293   1.276       .  A
O287       Cu290   2.003       .  S
O287        C292   1.277       .  A
O288       Cu290   2.000       .  S
O288        C291   1.277       .  A
Cu289      Cu290   2.369       .  S
C291       C1088   1.485       .  S
C292        C381   1.485       .  S
C293        C641   1.477       .  S
C294        C408   1.470       .  S
O295       Cu303   1.998       .  S
O295        C305   1.277       .  A
O296       Cu303   1.999       .  S
O296        C306   1.277       .  A
O297       Cu303   1.994       .  S
O297        C307   1.277       .  A
O298       Cu303   1.996       .  S
O298        C308   1.277       .  A
O299       Cu304   1.990       .  S
O299        C308   1.276       .  A
O300       Cu304   1.991       .  S
O300        C307   1.276       .  A
O301       Cu304   2.000       .  S
O301        C306   1.277       .  A
O302       Cu304   2.003       .  S
O302        C305   1.278       .  A
Cu303      Cu304   2.369       .  S
C305        C701   1.483       .  S
C306        C348   1.478       .  S
C307        C361   1.478       .  S
C308        C421   1.472       .  S
O309       Cu317   1.999   1_545  S
O309        C319   1.277       .  A
O310       Cu317   2.000       .  S
O310        C320   1.277       .  A
O311       Cu317   2.016       .  S
O311        C321   1.279       .  A
O312       Cu317   2.015   1_545  S
O312        C322   1.279       .  A
O313       Cu318   1.992   1_545  S
O313        C322   1.276       .  A
O314       Cu318   1.996       .  S
O314        C321   1.276       .  A
O315       Cu318   1.989       .  S
O315        C320   1.276       .  A
O316       Cu318   1.991   1_545  S
O316        C319   1.276       .  A
Cu317      Cu318   2.368       .  S
C319        C368   1.479       .  S
C320        C628   1.479       .  S
C321        C748   1.483       .  S
C322        C448   1.484       .  S
O323       Cu331   2.007       .  S
O323        C333   1.278   1_455  A
O324       Cu331   2.001       .  S
O324        C334   1.278       .  A
O325       Cu331   1.998       .  S
O325        C335   1.277       .  A
O326       Cu331   2.002       .  S
O326        C336   1.277   1_455  A
O327       Cu332   2.008       .  S
O327        C336   1.278   1_455  A
O328       Cu332   2.005       .  S
O328        C335   1.278       .  A
O329       Cu332   1.998       .  S
O329        C334   1.276       .  A
O330       Cu332   2.000       .  S
O330        C333   1.277   1_455  A
Cu331      Cu332   2.368       .  S
C333        C821   1.486       .  S
C334        C341   1.477       .  S
C335        C501   1.481       .  S
C336        C388   1.486       .  S
C337        C338   1.403       .  A
C337        C342   1.393       .  A
C337        F355   1.358       .  S
C338        C343   1.473       .  S
C338        C339   1.403       .  A
C339        C340   1.399       .  A
C339        F344   1.358       .  S
C340        C341   1.411       .  A
C340        F356   1.358       .  S
C341        C342   1.407       .  A
C342        F345   1.358       .  S
C343        C346   1.403       .  A
C343        C350   1.402       .  A
C346        C347   1.398       .  A
C346        F351   1.358       .  S
C347        C348   1.410       .  A
C347        F353   1.358       .  S
C348        C349   1.409       .  A
C349        C350   1.394       .  A
C349        F352   1.358       .  S
C350        F354   1.358       .  S
C357        C358   1.401       .  A
C357        C362   1.395       .  A
C357        F375   1.358       .  S
C358        C363   1.469       .  S
C358        C359   1.401       .  A
C359        C360   1.393       .  A
C359        F364   1.358       .  S
C360        C361   1.411       .  A
C360        F376   1.358       .  S
C361        C362   1.412       .  A
C362        F365   1.358       .  S
C363        C366   1.401       .  A
C363        C370   1.402       .  A
C366        C367   1.393       .  A
C366        F371   1.358       .  S
C367        C368   1.411       .  A
C367        F373   1.358       .  S
C368        C369   1.411       .  A
C369        C370   1.396       .  A
C369        F372   1.358       .  S
C370        F374   1.358       .  S
C377        C378   1.402       .  A
C377        C382   1.398       .  A
C377        F395   1.358       .  S
C378        C383   1.477       .  S
C378        C379   1.403       .  A
C379        C380   1.399       .  A
C379        F384   1.358       .  S
C380        C381   1.411       .  A
C380        F396   1.358       .  S
C381        C382   1.412       .  A
C382        F385   1.358       .  S
C383        C386   1.402       .  A
C383        C390   1.402       .  A
C386        C387   1.398       .  A
C386        F391   1.358       .  S
C387        C388   1.412       .  A
C387        F393   1.358       .  S
C388        C389   1.412       .  A
C389        C390   1.398       .  A
C389        F392   1.358       .  S
C390        F394   1.358       .  S
C397        C398   1.400       .  A
C397        C402   1.392       .  A
C397        F415   1.358       .  S
C398        C403   1.466       .  S
C398        C399   1.401       .  A
C399        C400   1.396       .  A
C399        F404   1.358       .  S
C400        C401   1.410       .  A
C400        F416   1.358       .  S
C401        C402   1.410       .  A
C402        F405   1.358       .  S
C403        C406   1.402       .  A
C403        C410   1.401       .  A
C406        C407   1.393       .  A
C406        F411   1.358       .  S
C407        C408   1.407       .  A
C407        F413   1.358       .  S
C408        C409   1.408       .  A
C409        C410   1.395       .  A
C409        F412   1.358       .  S
C410        F414   1.358       .  S
C417        C418   1.402       .  A
C417        C422   1.393       .  A
C417        F435   1.358       .  S
C418        C423   1.468       .  S
C418        C419   1.402       .  A
C419        C420   1.394       .  A
C419        F424   1.358       .  S
C420        C421   1.409       .  A
C420        F436   1.358       .  S
C421        C422   1.408       .  A
C422        F425   1.358       .  S
C423        C426   1.401       .  A
C423        C430   1.402       .  A
C426        C427   1.394       .  A
C426        F431   1.358       .  S
C427        C428   1.410       .  A
C427        F433   1.358       .  S
C428        C429   1.409       .  A
C429        C430   1.394       .  A
C429        F432   1.358       .  S
C430        F434   1.358       .  S
C437        C438   1.405       .  A
C437        C442   1.399       .  A
C437        F455   1.358       .  S
C438        C443   1.480       .  S
C438        C439   1.403       .  A
C439        C440   1.395       .  A
C439        F444   1.358       .  S
C440        C441   1.410       .  A
C440        F456   1.358       .  S
C441        C442   1.411       .  A
C442        F445   1.358       .  S
C443        C446   1.405       .  A
C443        C450   1.403       .  A
C446        C447   1.400       .  A
C446        F451   1.358       .  S
C447        C448   1.410       .  A
C447        F453   1.358       .  S
C448        C449   1.411       .  A
C449        C450   1.395       .  A
C449        F452   1.358       .  S
C450        F454   1.358       .  S
C457        C458   1.403       .  A
C457        C462   1.398       .  A
C457        F475   1.358       .  S
C458        C463   1.480       .  S
C458        C459   1.403       .  A
C459        C460   1.400       .  A
C459        F464   1.358       .  S
C460        C461   1.413       .  A
C460        F476   1.358       .  S
C461        C462   1.413       .  A
C462        F465   1.358       .  S
C463        C466   1.402       .  A
C463        C470   1.405       .  A
C466        C467   1.395       .  A
C466        F471   1.358       .  S
C467        C468   1.413       .  A
C467        F473   1.358       .  S
C468        C469   1.412       .  A
C469        C470   1.402       .  A
C469        F472   1.358       .  S
C470        F474   1.358       .  S
C477        C478   1.403       .  A
C477        C482   1.392       .  A
C477        F495   1.358       .  S
C478        C483   1.474       .  S
C478        C479   1.404       .  A
C479        C480   1.398       .  A
C479        F484   1.358       .  S
C480        C481   1.410       .  A
C480        F496   1.358       .  S
C481        C482   1.409       .  A
C482        F485   1.358       .  S
C483        C486   1.403       .  A
C483        C490   1.404       .  A
C486        C487   1.395       .  A
C486        F491   1.358       .  S
C487        C488   1.409       .  A
C487        F493   1.358       .  S
C488        C489   1.409       .  A
C489        C490   1.395       .  A
C489        F492   1.358       .  S
C490        F494   1.358       .  S
C497        C498   1.403       .  A
C497        C502   1.399       .  A
C497        F515   1.358       .  S
C498        C503   1.475       .  S
C498        C499   1.403       .  A
C499        C500   1.394       .  A
C499        F504   1.358       .  S
C500        C501   1.410       .  A
C500        F516   1.358       .  S
C501        C502   1.411       .  A
C502        F505   1.358       .  S
C503        C506   1.402       .  A
C503        C510   1.403       .  A
C506        C507   1.395       .  A
C506        F511   1.358       .  S
C507        C508   1.411       .  A
C507        F513   1.358       .  S
C508        C509   1.410       .  A
C509        C510   1.396       .  A
C509        F512   1.358       .  S
C510        F514   1.358       .  S
C517        C518   1.404       .  A
C517        C522   1.396       .  A
C517        F535   1.358       .  S
C518        C523   1.475       .  S
C518        C519   1.404       .  A
C519        C520   1.396       .  A
C519        F524   1.358       .  S
C520        C521   1.408       .  A
C520        F536   1.358       .  S
C521        C522   1.409       .  A
C522        F525   1.358       .  S
C523        C526   1.404       .  A
C523        C530   1.404       .  A
C526        C527   1.395       .  A
C526        F531   1.358       .  S
C527        C528   1.408       .  A
C527        F533   1.358       .  S
C528        C529   1.408       .  A
C529        C530   1.397       .  A
C529        F532   1.358       .  S
C530        F534   1.358       .  S
C537        C538   1.402       .  A
C537        C542   1.398       .  A
C537        F555   1.358       .  S
C538        C543   1.473       .  S
C538        C539   1.402       .  A
C539        C540   1.393       .  A
C539        F544   1.359       .  S
C540        C541   1.411       .  A
C540        F556   1.358       .  S
C541        C542   1.413       .  A
C542        F545   1.358       .  S
C543        C546   1.403       .  A
C543        C550   1.402       .  A
C546        C547   1.394       .  A
C546        F551   1.358       .  S
C547        C548   1.410       .  A
C547        F553   1.358       .  S
C548        C549   1.412       .  A
C549        C550   1.396       .  A
C549        F552   1.358       .  S
C550        F554   1.358       .  S
C557        C558   1.401       .  A
C557        C562   1.396       .  A
C557        F575   1.358       .  S
C558        C563   1.470       .  S
C558        C559   1.402       .  A
C559        C560   1.397       .  A
C559        F564   1.358       .  S
C560        C561   1.409       .  A
C560        F576   1.358       .  S
C561        C562   1.410       .  A
C562        F565   1.358       .  S
C563        C566   1.402       .  A
C563        C570   1.401       .  A
C566        C567   1.397       .  A
C566        F571   1.358       .  S
C567        C568   1.410       .  A
C567        F573   1.358       .  S
C568        C569   1.410       .  A
C569        C570   1.395       .  A
C569        F572   1.358       .  S
C570        F574   1.358       .  S
C577        C578   1.403       .  A
C577        C582   1.399       .  A
C577        F595   1.358       .  S
C578        C583   1.475       .  S
C578        C579   1.401       .  A
C579        C580   1.395       .  A
C579        F584   1.358       .  S
C580        C581   1.413       .  A
C580        F596   1.358       .  S
C581        C582   1.411       .  A
C582        F585   1.358       .  S
C583        C586   1.403       .  A
C583        C590   1.401       .  A
C586        C587   1.398       .  A
C586        F591   1.358       .  S
C587        C588   1.411       .  A
C587        F593   1.358       .  S
C588        C589   1.413       .  A
C589        C590   1.397       .  A
C589        F592   1.358       .  S
C590        F594   1.358       .  S
C597        C598   1.402       .  A
C597        C602   1.397       .  A
C597        F615   1.358       .  S
C598        C603   1.476       .  S
C598        C599   1.403       .  A
C599        C600   1.399       .  A
C599        F604   1.358       .  S
C600        C601   1.411       .  A
C600        F616   1.358       .  S
C601        C602   1.411       .  A
C602        F605   1.358       .  S
C603        C606   1.404       .  A
C603        C610   1.403       .  A
C606        C607   1.400       .  A
C606        F611   1.358       .  S
C607        C608   1.410       .  A
C607        F613   1.358       .  S
C608        C609   1.409       .  A
C609        C610   1.396       .  A
C609        F612   1.358       .  S
C610        F614   1.358       .  S
C617        C618   1.404       .  A
C617        C622   1.394       .  A
C617        F635   1.358       .  S
C618        C623   1.477       .  S
C618        C619   1.406       .  A
C619        C620   1.395       .  A
C619        F624   1.358       .  S
C620        C621   1.407       .  A
C620        F636   1.358       .  S
C621        C622   1.410       .  A
C622        F625   1.358       .  S
C623        C626   1.405       .  A
C623        C630   1.404       .  A
C626        C627   1.397       .  A
C626        F631   1.358       .  S
C627        C628   1.411       .  A
C627        F633   1.358       .  S
C628        C629   1.410       .  A
C629        C630   1.392       .  A
C629        F632   1.358       .  S
C630        F634   1.358       .  S
C637        C638   1.404       .  A
C637        C642   1.398       .  A
C637        F655   1.358       .  S
C638        C643   1.474       .  S
C638        C639   1.403       .  A
C639        C640   1.391       .  A
C639        F644   1.358       .  S
C640        C641   1.409       .  A
C640        F656   1.358       .  S
C641        C642   1.410       .  A
C642        F645   1.358       .  S
C643        C646   1.404       .  A
C643        C650   1.403       .  A
C646        C647   1.393       .  A
C646        F651   1.358       .  S
C647        C648   1.408       .  A
C647        F653   1.358       .  S
C648        C649   1.410       .  A
C649        C650   1.396       .  A
C649        F652   1.358       .  S
C650        F654   1.358       .  S
C657        C658   1.407       .  A
C657        C662   1.397       .  A
C657        F675   1.358       .  S
C658        C663   1.486       .  S
C658        C659   1.407       .  A
C659        C660   1.397       .  A
C659        F664   1.358       .  S
C660        C661   1.408       .  A
C660        F676   1.358       .  S
C661        C662   1.409       .  A
C662        F665   1.358       .  S
C663        C666   1.406       .  A
C663        C670   1.406       .  A
C666        C667   1.395       .  A
C666        F671   1.358       .  S
C667        C668   1.410       .  A
C667        F673   1.358       .  S
C668        C669   1.413       .  A
C669        C670   1.400       .  A
C669        F672   1.358       .  S
C670        F674   1.358       .  S
C677        C678   1.405       .  A
C677        C682   1.398       .  A
C677        F695   1.358       .  S
C678        C683   1.477       .  S
C678        C679   1.403       .  A
C679        C680   1.395       .  A
C679        F684   1.358       .  S
C680        C681   1.408       .  A
C680        F696   1.358       .  S
C681        C682   1.408       .  A
C682        F685   1.358       .  S
C683        C686   1.403       .  A
C683        C690   1.404       .  A
C686        C687   1.396       .  A
C686        F691   1.358       .  S
C687        C688   1.411       .  A
C687        F693   1.358       .  S
C688        C689   1.409       .  A
C689        C690   1.399       .  A
C689        F692   1.358       .  S
C690        F694   1.358       .  S
C697        C698   1.402       .  A
C697        C702   1.396       .  A
C697        F715   1.358       .  S
C698        C703   1.474       .  S
C698        C699   1.402       .  A
C699        C700   1.396       .  A
C699        F704   1.358       .  S
C700        C701   1.412       .  A
C700        F716   1.358       .  S
C701        C702   1.411       .  A
C702        F705   1.358       .  S
C703        C706   1.402       .  A
C703        C710   1.403       .  A
C706        C707   1.397       .  A
C706        F711   1.358       .  S
C707        C708   1.412       .  A
C707        F713   1.358       .  S
C708        C709   1.411       .  A
C709        C710   1.395       .  A
C709        F712   1.358       .  S
C710        F714   1.358       .  S
C717        C718   1.403       .  A
C717        C722   1.398       .  A
C717        F735   1.358       .  S
C718        C723   1.477       .  S
C718        C719   1.403       .  A
C719        C720   1.399       .  A
C719        F724   1.358       .  S
C720        C721   1.410       .  A
C720        F736   1.358       .  S
C721        C722   1.410       .  A
C722        F725   1.358       .  S
C723        C726   1.403       .  A
C723        C730   1.403       .  A
C726        C727   1.397       .  A
C726        F731   1.358       .  S
C727        C728   1.409       .  A
C727        F733   1.358       .  S
C728        C729   1.411       .  A
C729        C730   1.400       .  A
C729        F732   1.358       .  S
C730        F734   1.358       .  S
C737        C738   1.402       .  A
C737        C742   1.392       .  A
C737        F755   1.358       .  S
C738        C743   1.476       .  S
C738        C739   1.405       .  A
C739        C740   1.402       .  A
C739        F744   1.358       .  S
C740        C741   1.410       .  A
C740        F756   1.358       .  S
C741        C742   1.408       .  A
C742        F745   1.358       .  S
C743        C746   1.402       .  A
C743        C750   1.404       .  A
C746        C747   1.399       .  A
C746        F751   1.358       .  S
C747        C748   1.412       .  A
C747        F753   1.358       .  S
C748        C749   1.409       .  A
C749        C750   1.397       .  A
C749        F752   1.358       .  S
C750        F754   1.358       .  S
C757        C758   1.401       .  A
C757        C762   1.397       .  A
C757        F775   1.358       .  S
C758        C763   1.472       .  S
C758        C759   1.401       .  A
C759        C760   1.396       .  A
C759        F764   1.358       .  S
C760        C761   1.411       .  A
C760        F776   1.358       .  S
C761        C762   1.413       .  A
C762        F765   1.358       .  S
C763        C766   1.402       .  A
C763        C770   1.400       .  A
C766        C767   1.397       .  A
C766        F771   1.358       .  S
C767        C768   1.412       .  A
C767        F773   1.358       .  S
C768        C769   1.413       .  A
C769        C770   1.398       .  A
C769        F772   1.358       .  S
C770        F774   1.358       .  S
C777        C778   1.402       .  A
C777        C782   1.397       .  A
C777        F795   1.358       .  S
C778        C783   1.473       .  S
C778        C779   1.401       .  A
C779        C780   1.397       .  A
C779        F784   1.358       .  S
C780        C781   1.413       .  A
C780        F796   1.358       .  S
C781        C782   1.411       .  A
C782        F785   1.357       .  S
C783        C786   1.402       .  A
C783        C790   1.401       .  A
C786        C787   1.399       .  A
C786        F791   1.358       .  S
C787        C788   1.411       .  A
C787        F793   1.358       .  S
C788        C789   1.411       .  A
C789        C790   1.394       .  A
C789        F792   1.358       .  S
C790        F794   1.358       .  S
C797        C798   1.406       .  A
C797        C802   1.397       .  A
C797        F815   1.358       .  S
C798        C803   1.481       .  S
C798        C799   1.405       .  A
C799        C800   1.396       .  A
C799        F804   1.358       .  S
C800        C801   1.410       .  A
C800        F816   1.358       .  S
C801        C802   1.408       .  A
C802        F805   1.358       .  S
C803        C806   1.406       .  A
C803        C810   1.404       .  A
C806        C807   1.400       .  A
C806        F811   1.358       .  S
C807        C808   1.410       .  A
C807        F813   1.358       .  S
C808        C809   1.410       .  A
C809        C810   1.392       .  A
C809        F812   1.358       .  S
C810        F814   1.358       .  S
C817        C818   1.401       .  A
C817        C822   1.399       .  A
C817        F835   1.358       .  S
C818        C823   1.471       .  S
C818        C819   1.399       .  A
C819        C820   1.396       .  A
C819        F824   1.358       .  S
C820        C821   1.413       .  A
C820        F836   1.358       .  S
C821        C822   1.413       .  A
C822        F825   1.358       .  S
C823        C826   1.402       .  A
C823        C830   1.401       .  A
C826        C827   1.397       .  A
C826        F831   1.358       .  S
C827        C828   1.410       .  A
C827        F833   1.358       .  S
C828        C829   1.411       .  A
C829        C830   1.398       .  A
C829        F832   1.358       .  S
C830        F834   1.358       .  S
C837        C838   1.403       .  A
C837        C842   1.397       .  A
C837        F855   1.358       .  S
C838        C843   1.475       .  S
C838        C839   1.402       .  A
C839        C840   1.396       .  A
C839        F844   1.358       .  S
C840        C841   1.413       .  A
C840        F856   1.358       .  S
C841        C842   1.410       .  A
C842        F845   1.358       .  S
C843        C846   1.403       .  A
C843        C850   1.402       .  A
C846        C847   1.397       .  A
C846        F851   1.358       .  S
C847        C848   1.411       .  A
C847        F853   1.358       .  S
C848        C849   1.413       .  A
C849        C850   1.397       .  A
C849        F852   1.358       .  S
C850        F854   1.358       .  S
C857        C858   1.404       .  A
C857        C862   1.398       .  A
C857        F875   1.358       .  S
C858        C863   1.478       .  S
C858        C859   1.403       .  A
C859        C860   1.396       .  A
C859        F864   1.358       .  S
C860        C861   1.412       .  A
C860        F876   1.358       .  S
C861        C862   1.411       .  A
C862        F865   1.358       .  S
C863        C866   1.404       .  A
C863        C870   1.403       .  A
C866        C867   1.397       .  A
C866        F871   1.358       .  S
C867        C868   1.412       .  A
C867        F873   1.358       .  S
C868        C869   1.412       .  A
C869        C870   1.396       .  A
C869        F872   1.358       .  S
C870        F874   1.358       .  S
C877        C878   1.407       .  A
C877        C882   1.401       .  A
C877        F895   1.358       .  S
C878        C883   1.482       .  S
C878        C879   1.403       .  A
C879        C880   1.394       .  A
C879        F884   1.358       .  S
C880        C881   1.411       .  A
C880        F896   1.358       .  S
C881        C882   1.409       .  A
C882        F885   1.358       .  S
C883        C886   1.404       .  A
C883        C890   1.405       .  A
C886        C887   1.397       .  A
C886        F891   1.358       .  S
C887        C888   1.411       .  A
C887        F893   1.357       .  S
C888        C889   1.410       .  A
C889        C890   1.399       .  A
C889        F892   1.358       .  S
C890        F894   1.358       .  S
C897        C898   1.403       .  A
C897        C902   1.398       .  A
C897        F915   1.358       .  S
C898        C903   1.475       .  S
C898        C899   1.403       .  A
C899        C900   1.395       .  A
C899        F904   1.358       .  S
C900        C901   1.408       .  A
C900        F916   1.358       .  S
C901        C902   1.412       .  A
C902        F905   1.358       .  S
C903        C906   1.401       .  A
C903        C910   1.404       .  A
C906        C907   1.394       .  A
C906        F911   1.358       .  S
C907        C908   1.411       .  A
C907        F913   1.358       .  S
C908        C909   1.409       .  A
C909        C910   1.400       .  A
C909        F912   1.358       .  S
C910        F914   1.358       .  S
C917        C918   1.399       .  A
C917        C922   1.389       .  A
C917        F935   1.358       .  S
C918        C923   1.466       .  S
C918        C919   1.402       .  A
C919        C920   1.400       .  A
C919        F924   1.358       .  S
C920        C921   1.410       .  A
C920        F936   1.358       .  S
C921        C922   1.408       .  A
C922        F925   1.358       .  S
C923        C926   1.399       .  A
C923        C930   1.400       .  A
C926        C927   1.396       .  A
C926        F931   1.358       .  S
C927        C928   1.413       .  A
C927        F933   1.358       .  S
C928        C929   1.411       .  A
C929        C930   1.393       .  A
C929        F932   1.358       .  S
C930        F934   1.358       .  S
C937        C938   1.405       .  A
C937        C942   1.402       .  A
C937        F955   1.358       .  S
C938        C943   1.479       .  S
C938        C939   1.402       .  A
C939        C940   1.395       .  A
C939        F944   1.358       .  S
C940        C941   1.410       .  A
C940        F956   1.358       .  S
C941        C942   1.410       .  A
C942        F945   1.358       .  S
C943        C946   1.402       .  A
C943        C950   1.404       .  A
C946        C947   1.397       .  A
C946        F951   1.358       .  S
C947        C948   1.412       .  A
C947        F953   1.358       .  S
C948        C949   1.411       .  A
C949        C950   1.401       .  A
C949        F952   1.358       .  S
C950        F954   1.358       .  S
C957        C958   1.403       .  A
C957        C962   1.394       .  A
C957        F975   1.358       .  S
C958        C963   1.473       .  S
C958        C959   1.403       .  A
C959        C960   1.394       .  A
C959        F964   1.358       .  S
C960        C961   1.410       .  A
C960        F976   1.358       .  S
C961        C962   1.410       .  A
C962        F965   1.358       .  S
C963        C966   1.403       .  A
C963        C970   1.402       .  A
C966        C967   1.394       .  A
C966        F971   1.358       .  S
C967        C968   1.411       .  A
C967        F973   1.358       .  S
C968        C969   1.411       .  A
C969        C970   1.395       .  A
C969        F972   1.358       .  S
C970        F974   1.358       .  S
C977        C978   1.400       .  A
C977        C982   1.393       .  A
C977        F995   1.358       .  S
C978        C983   1.467       .  S
C978        C979   1.400       .  A
C979        C980   1.395       .  A
C979        F984   1.358       .  S
C980        C981   1.412       .  A
C980        F996   1.358       .  S
C981        C982   1.411       .  A
C982        F985   1.358       .  S
C983        C986   1.399       .  A
C983        C990   1.401       .  A
C986        C987   1.391       .  A
C986        F991   1.359       .  S
C987        C988   1.412       .  A
C987        F993   1.358       .  S
C988        C989   1.411       .  A
C989        C990   1.397       .  A
C989        F992   1.358       .  S
C990        F994   1.358       .  S
C997        C998   1.401       .  A
C997       C1002   1.395       .  A
C997       F1015   1.358       .  S
C998       C1003   1.467       .  S
C998        C999   1.401       .  A
C999       C1000   1.397       .  A
C999       F1004   1.358       .  S
C1000      C1001   1.407       .  A
C1000      F1016   1.358       .  S
C1001      C1002   1.408       .  A
C1002      F1005   1.358       .  S
C1003      C1006   1.400       .  A
C1003      C1010   1.399       .  A
C1006      C1007   1.398       .  A
C1006      F1011   1.358       .  S
C1007      C1008   1.414       .  A
C1007      F1013   1.358       .  S
C1008      C1009   1.412       .  A
C1009      C1010   1.395       .  A
C1009      F1012   1.357       .  S
C1010      F1014   1.358       .  S
C1017      C1018   1.402       .  A
C1017      C1022   1.393       .  A
C1017      F1035   1.358       .  S
C1018      C1023   1.475       .  S
C1018      C1019   1.404       .  A
C1019      C1020   1.399       .  A
C1019      F1024   1.358       .  S
C1020      C1021   1.410       .  A
C1020      F1036   1.358       .  S
C1021      C1022   1.411       .  A
C1022      F1025   1.358       .  S
C1023      C1026   1.405       .  A
C1023      C1030   1.403       .  A
C1026      C1027   1.398       .  A
C1026      F1031   1.358       .  S
C1027      C1028   1.409       .  A
C1027      F1033   1.358       .  S
C1028      C1029   1.409       .  A
C1029      C1030   1.394       .  A
C1029      F1032   1.358       .  S
C1030      F1034   1.358       .  S
C1037      C1038   1.404       .  A
C1037      C1042   1.400       .  A
C1037      F1055   1.358       .  S
C1038      C1043   1.477       .  S
C1038      C1039   1.402       .  A
C1039      C1040   1.396       .  A
C1039      F1044   1.358       .  S
C1040      C1041   1.411       .  A
C1040      F1056   1.358       .  S
C1041      C1042   1.410       .  A
C1042      F1045   1.358       .  S
C1043      C1046   1.403       .  A
C1043      C1050   1.404       .  A
C1046      C1047   1.395       .  A
C1046      F1051   1.358       .  S
C1047      C1048   1.409       .  A
C1047      F1053   1.358       .  S
C1048      C1049   1.410       .  A
C1049      C1050   1.401       .  A
C1049      F1052   1.358       .  S
C1050      F1054   1.358       .  S
C1057      C1058   1.400       .  A
C1057      C1062   1.393       .  A
C1057      F1075   1.358       .  S
C1058      C1063   1.465       .  S
C1058      C1059   1.402       .  A
C1059      C1060   1.395       .  A
C1059      F1064   1.358       .  S
C1060      C1061   1.407       .  A
C1060      F1076   1.358       .  S
C1061      C1062   1.409       .  A
C1062      F1065   1.358       .  S
C1063      C1066   1.401       .  A
C1063      C1070   1.402       .  A
C1066      C1067   1.392       .  A
C1066      F1071   1.358       .  S
C1067      C1068   1.406       .  A
C1067      F1073   1.358       .  S
C1068      C1069   1.407       .  A
C1069      C1070   1.397       .  A
C1069      F1072   1.358       .  S
C1070      F1074   1.358       .  S
C1077      C1078   1.403       .  A
C1077      C1082   1.400       .  A
C1077      F1095   1.358       .  S
C1078      C1083   1.471       .  S
C1078      C1079   1.399       .  A
C1079      C1080   1.393       .  A
C1079      F1084   1.358       .  S
C1080      C1081   1.413       .  A
C1080      F1096   1.358       .  S
C1081      C1082   1.411       .  A
C1082      F1085   1.358       .  S
C1083      C1086   1.400       .  A
C1083      C1090   1.401       .  A
C1086      C1087   1.395       .  A
C1086      F1091   1.358       .  S
C1087      C1088   1.412       .  A
C1087      F1093   1.358       .  S
C1088      C1089   1.413       .  A
C1089      C1090   1.399       .  A
C1089      F1092   1.358       .  S
C1090      F1094   1.358       .  S
C1097      C1098   1.402       .  A
C1097      C1102   1.396       .  A
C1097      F1115   1.358       .  S
C1098      C1103   1.470       .  S
C1098      C1099   1.401       .  A
C1099      C1100   1.395       .  A
C1099      F1104   1.358       .  S
C1100      C1101   1.411       .  A
C1100      F1116   1.358       .  S
C1101      C1102   1.409       .  A
C1102      F1105   1.358       .  S
C1103      C1106   1.400       .  A
C1103      C1110   1.402       .  A
C1106      C1107   1.394       .  A
C1106      F1111   1.358       .  S
C1107      C1108   1.413       .  A
C1107      F1113   1.358       .  S
C1108      C1109   1.410       .  A
C1109      C1110   1.397       .  A
C1109      F1112   1.357       .  S
C1110      F1114   1.358       .  S
C1117      C1118   1.404       .  A
C1117      C1122   1.397       .  A
C1117      F1135   1.358       .  S
C1118      C1123   1.473       .  S
C1118      C1119   1.402       .  A
C1119      C1120   1.396       .  A
C1119      F1124   1.358       .  S
C1120      C1121   1.408       .  A
C1120      F1136   1.358       .  S
C1121      C1122   1.408       .  A
C1122      F1125   1.358       .  S
C1123      C1126   1.402       .  A
C1123      C1130   1.403       .  A
C1126      C1127   1.395       .  A
C1126      F1131   1.358       .  S
C1127      C1128   1.409       .  A
C1127      F1133   1.358       .  S
C1128      C1129   1.410       .  A
C1129      C1130   1.398       .  A
C1129      F1132   1.358       .  S
C1130      F1134   1.358       .  S
C1137      C1138   1.401       .  A
C1137      C1142   1.393       .  A
C1137      F1155   1.358       .  S
C1138      C1143   1.472       .  S
C1138      C1139   1.402       .  A
C1139      C1140   1.399       .  A
C1139      F1144   1.358       .  S
C1140      C1141   1.412       .  A
C1140      F1156   1.358       .  S
C1141      C1142   1.411       .  A
C1142      F1145   1.358       .  S
C1143      C1146   1.402       .  A
C1143      C1150   1.402       .  A
C1146      C1147   1.396       .  A
C1146      F1151   1.358       .  S
C1147      C1148   1.410       .  A
C1147      F1153   1.358       .  S
C1148      C1149   1.410       .  A
C1149      C1150   1.395       .  A
C1149      F1152   1.358       .  S
C1150      F1154   1.358       .  S
C1157      C1158   1.405       .  A
C1157      C1162   1.401       .  A
C1157      F1175   1.358       .  S
C1158      C1163   1.480       .  S
C1158      C1159   1.402       .  A
C1159      C1160   1.393       .  A
C1159      F1164   1.358       .  S
C1160      C1161   1.412       .  A
C1160      F1176   1.358       .  S
C1161      C1162   1.411       .  A
C1162      F1165   1.358       .  S
C1163      C1166   1.404       .  A
C1163      C1170   1.403       .  A
C1166      C1167   1.398       .  A
C1166      F1171   1.358       .  S
C1167      C1168   1.411       .  A
C1167      F1173   1.358       .  S
C1168      C1169   1.412       .  A
C1169      C1170   1.396       .  A
C1169      F1172   1.358       .  S
C1170      F1174   1.358       .  S
C1177      C1178   1.402       .  A
C1177      C1182   1.395       .  A
C1177      F1195   1.358       .  S
C1178      C1183   1.476       .  S
C1178      C1179   1.404       .  A
C1179      C1180   1.400       .  A
C1179      F1184   1.358       .  S
C1180      C1181   1.409       .  A
C1180      F1196   1.358       .  S
C1181      C1182   1.411       .  A
C1182      F1185   1.358       .  S
C1183      C1186   1.403       .  A
C1183      C1190   1.404       .  A
C1186      C1187   1.397       .  A
C1186      F1191   1.358       .  S
C1187      C1188   1.410       .  A
C1187      F1193   1.358       .  S
C1188      C1189   1.411       .  A
C1189      C1190   1.398       .  A
C1189      F1192   1.358       .  S
C1190      F1194   1.358       .  S
C1197      C1198   1.402       .  A
C1197      C1202   1.393       .  A
C1197      F1215   1.359       .  S
C1198      C1203   1.471       .  S
C1198      C1199   1.402       .  A
C1199      C1200   1.395       .  A
C1199      F1204   1.358       .  S
C1200      C1201   1.410       .  A
C1200      F1216   1.358       .  S
C1201      C1202   1.412       .  A
C1202      F1205   1.358       .  S
C1203      C1206   1.402       .  A
C1203      C1210   1.402       .  A
C1206      C1207   1.394       .  A
C1206      F1211   1.358       .  S
C1207      C1208   1.410       .  A
C1207      F1213   1.358       .  S
C1208      C1209   1.410       .  A
C1209      C1210   1.394       .  A
C1209      F1212   1.358       .  S
C1210      F1214   1.358       .  S
C1217      C1218   1.407       .  A
C1217      C1222   1.396       .  A
C1217      F1235   1.358       .  S
C1218      C1223   1.475       .  S
C1218      C1219   1.406       .  A
C1219      C1220   1.395       .  A
C1219      F1224   1.358       .  S
C1220      C1221   1.402       .  A
C1220      F1236   1.358       .  S
C1221      C1222   1.402       .  A
C1222      F1225   1.358   1_655  S
C1223      C1226   1.405       .  A
C1223      C1230   1.407       .  A
C1226      C1227   1.396       .  A
C1226      F1231   1.358       .  S
C1227      C1228   1.404       .  A
C1227      F1233   1.358       .  S
C1228      C1229   1.401       .  A
C1229      C1230   1.395       .  A
C1229      F1232   1.358       .  S
C1230      F1234   1.358       .  S
C1237      C1238   1.401       .  A
C1237      C1242   1.394       .  A
C1237      F1255   1.358       .  S
C1238      C1243   1.467       .  S
C1238      C1239   1.400       .  A
C1239      C1240   1.393       .  A
C1239      F1244   1.358       .  S
C1240      C1241   1.411       .  A
C1240      F1256   1.358       .  S
C1241      C1242   1.411       .  A
C1242      F1245   1.358       .  S
C1243      C1246   1.401       .  A
C1243      C1250   1.401       .  A
C1246      C1247   1.391       .  A
C1246      F1251   1.358       .  S
C1247      C1248   1.410       .  A
C1247      F1253   1.358       .  S
C1248      C1249   1.412       .  A
C1249      C1250   1.396       .  A
C1249      F1252   1.358       .  S
C1250      F1254   1.358       .  S
C1257      C1258   1.400       .  A
C1257      C1262   1.396       .  A
C1257      F1275   1.358       .  S
C1258      C1263   1.470       .  S
C1258      C1259   1.401       .  A
C1259      C1260   1.396       .  A
C1259      F1264   1.358       .  S
C1260      C1261   1.412       .  A
C1260      F1276   1.358       .  S
C1261      C1262   1.412       .  A
C1262      F1265   1.358       .  S
C1263      C1266   1.401       .  A
C1263      C1270   1.400       .  A
C1266      C1267   1.398       .  A
C1266      F1271   1.358       .  S
C1267      C1268   1.412       .  A
C1267      F1273   1.357       .  S
C1268      C1269   1.413       .  A
C1269      C1270   1.394       .  A
C1269      F1272   1.358       .  S
C1270      F1274   1.358       .  S
C1277      C1278   1.403       .  A
C1277      C1282   1.396       .  A
C1277      F1295   1.358       .  S
C1278      C1283   1.473       .  S
C1278      C1279   1.403       .  A
C1279      C1280   1.393       .  A
C1279      F1284   1.358       .  S
C1280      C1281   1.410       .  A
C1280      F1296   1.358       .  S
C1281      C1282   1.411       .  A
C1282      F1285   1.358       .  S
C1283      C1286   1.404       .  A
C1283      C1290   1.402       .  A
C1286      C1287   1.394       .  A
C1286      F1291   1.358       .  S
C1287      C1288   1.409       .  A
C1287      F1293   1.358       .  S
C1288      C1289   1.410       .  A
C1289      C1290   1.395       .  A
C1289      F1292   1.358       .  S
C1290      F1294   1.358       .  S
