geometry optimzed in LAMMPS
_audit_creation_date              2020-12-01 
_audit_creation_method            'lammps2cif' 
_symmetry_space_group_name_H-M    'P1' 
_symmetry_Int_Tables_number       1 
_symmetry_cell_setting            triclinic 
loop_ 
_symmetry_equiv_pos_as_xyz 
  x,y,z 
_cell_length_a                    47.42738532 
_cell_length_b                    33.9161104240668 
_cell_length_c                    33.95871576848523 
_cell_angle_alpha                 90.27166125557348 
_cell_angle_beta                  89.8703017528823 
_cell_angle_gamma                 90.02121089116943 
loop_ 
_atom_site_label 
_atom_site_type_symbol 
_atom_site_fract_x 
_atom_site_fract_y 
_atom_site_fract_z 
_atom_site_charge 
O1          O  0.17450551  0.26692842  0.02307587    -0.88500
C2          C  0.09934107  0.29338231  0.07201515     0.87500
Mg3        Mg  0.18469120  0.28120382  0.96376431     1.58100
O4          O  0.10858305  0.19372878  0.04813348    -0.88200
O5          O  0.17292293  0.21408359  0.05987360    -0.75600
C6          C  0.07387685  0.22279481  0.85856410     0.92600
O7          O  0.13384905  0.33899157  0.00462843    -0.75400
O8          O  0.09454136  0.24664212  0.85613449    -0.82900
Mg9        Mg  0.15726263  0.31342789  0.05821797     1.58000
C10         C  0.04664954  0.13137089  0.99219515     0.92500
O11         O  0.18072931  0.29377159  0.11376187    -0.81200
H12         H  0.12958301  0.14295720  0.05367673    -0.06500
C13         C  0.06576861  0.25800489  0.96599763     0.87400
O14         O  0.17450173  0.21755600  0.94463505    -0.75700
O15         O  0.12247554  0.27655328  0.07145914    -0.88400
O16         O  0.05118379  0.15169630  0.02317037    -0.81200
C17         C  0.06675995  0.21163144  0.13497559     0.92600
C18         C  0.17878455  0.27050369  0.14298106     0.92500
Mg19       Mg  0.09332294  0.18061880  0.94472171     1.58000
O20         O  0.07015597  0.20117219  0.88877118    -0.81200
O21         O  0.11591851  0.15373984  0.99816954    -0.75400
O22         O  0.09271658  0.22157896  0.13600698    -0.81200
O23         O  0.19347135  0.35409266  0.04430852    -0.83000
O24         O  0.16049877  0.26930899  0.86742189    -0.81300
C25         C  0.11819967  0.16262485  0.03444564     0.86900
O26         O  0.12911946  0.21638981  0.93191148    -0.88400
O27         O  0.07661278  0.22791185  0.97978607    -0.88500
O28         O  0.07843971  0.27893455  0.94050375    -0.75600
Mg29       Mg  0.13198934  0.21937576  0.09547793     1.58000
O30         O  0.05445700  0.20180805  0.10313742    -0.82900
H31         H  0.20589752  0.22767702  0.02433686    -0.06700
O32         O  0.14219824  0.29962059  0.95438545    -0.88200
H33         H  0.11955543  0.34905452  0.94927652    -0.06500
H34         H  0.15392753  0.16937154  0.92363444    -0.06700
C35         C  0.13163645  0.33003388  0.96832706     0.86900
C36         C  0.18550073  0.23638120  0.03555634     0.87500
C37         C  0.15243405  0.19996842  0.93252948     0.87500
H38         H  0.04531505  0.26722663  0.97655130    -0.06700
O39         O  0.07706031  0.27674843  0.05958298    -0.75700
Mg40       Mg  0.12024018  0.27286144  0.90630980     1.58000
H41         H  0.09826135  0.32371097  0.08190925    -0.06700
C42         C  0.20176577  0.36556549  0.01067641     0.92500
O43         O  0.19727522  0.29289093  0.90102666    -0.82900
C44         C  0.18614440  0.28055120  0.86930921     0.92600
O45         O  0.15948932  0.24439547  0.14463476    -0.82900
Mg46       Mg  0.06622696  0.21394604  0.03968463     1.58200
O47         O  0.19757810  0.34497121  0.97973699    -0.81200
O48         O  0.05627998  0.14136686  0.95872949    -0.82900
O49         O  0.41960478  0.77264295  0.02253713    -0.88500
C50         C  0.34193403  0.79598067  0.06639078     0.87500
Mg51       Mg  0.43236648  0.78710286  0.96395685     1.58100
O52         O  0.35430005  0.69673791  0.04443982    -0.88200
O53         O  0.41738699  0.72046729  0.06037145    -0.75600
C54         C  0.32657705  0.72327351  0.85231435     0.92600
O55         O  0.37747513  0.84249126  0.00135798    -0.75400
O56         O  0.34646666  0.74850428  0.85141135    -0.82900
Mg57       Mg  0.39966304  0.81845922  0.05648473     1.58000
C58         C  0.29745887  0.62983743  0.98494729     0.92500
O59         O  0.42289504  0.79949119  0.11323447    -0.81200
H60         H  0.37720112  0.64787777  0.05182458    -0.06500
C61         C  0.31382328  0.75857586  0.95855081     0.87400
O62         O  0.42420797  0.72339686  0.94349606    -0.75700
O63         O  0.36538954  0.78009241  0.06749160    -0.88400
O64         O  0.29898781  0.65247635  0.01486557    -0.81200
C65         C  0.30844693  0.71387852  0.12742611     0.92600
C66         C  0.41941612  0.77676072  0.14268677     0.92500
Mg67       Mg  0.34433537  0.68211455  0.93982908     1.58000
O68         O  0.32260446  0.70101298  0.88204506    -0.81200
O69         O  0.36578038  0.65767841  0.99518162    -0.75400
O70         O  0.33405495  0.72515396  0.13026876    -0.81200
O71         O  0.43389902  0.86234357  0.04460857    -0.83000
O72         O  0.41182962  0.77553278  0.86576539    -0.81300
C73         C  0.36585468  0.66656470  0.03160196     0.86900
O74         O  0.37923661  0.72044576  0.92899996    -0.88400
O75         O  0.32454193  0.72874710  0.97312255    -0.88500
O76         O  0.32714215  0.78012189  0.93421991    -0.75600
Mg77       Mg  0.37501973  0.72417160  0.09307958     1.58000
O78         O  0.29767451  0.70285178  0.09488249    -0.82900
H79         H  0.45133774  0.73414190  0.02668289    -0.06700
O80         O  0.38989546  0.80461498  0.95147496    -0.88200
H81         H  0.36573620  0.85241625  0.94485106    -0.06500
H82         H  0.40521836  0.67468093  0.92087875    -0.06700
C83         C  0.37758943  0.83404207  0.96479384     0.86900
C84         C  0.43047077  0.74255042  0.03632080     0.87500
C85         C  0.40285189  0.70503556  0.93023473     0.87500
H86         H  0.29284204  0.76713660  0.96755531    -0.06700
O87         O  0.32048307  0.77840515  0.05249670    -0.75700
Mg88       Mg  0.37007330  0.77636324  0.90252620     1.58000
H89         H  0.33988015  0.82627553  0.07608331    -0.06700
C90         C  0.44523702  0.87222085  0.01222924     0.92500
O91         O  0.44711519  0.79992410  0.90179630    -0.82900
C92         C  0.43717397  0.78802814  0.86906486     0.92600
O93         O  0.39956192  0.75145895  0.14400995    -0.82900
Mg94       Mg  0.31189567  0.71505423  0.03223232     1.58200
O95         O  0.44436722  0.85017764  0.98178781    -0.81200
O96         O  0.30878927  0.63868027  0.95210917    -0.82900
O97         O  0.42453379  0.23030445  0.47904731    -0.88500
C98         C  0.34839295  0.20706033  0.42958226     0.87500
Mg99       Mg  0.43538444  0.21476611  0.53794242     1.58100
O100        O  0.35915572  0.30577029  0.45558508    -0.88200
O101        O  0.42310260  0.28362749  0.44277982    -0.75600
C102        C  0.32424394  0.27119970  0.64397930     0.92600
O103        O  0.38249106  0.15835570  0.49590000    -0.75400
O104        O  0.34485604  0.24726259  0.64585822    -0.82900
Mg105      Mg  0.40585510  0.18483897  0.44300279     1.58000
C106        C  0.29916706  0.36898747  0.51431861     0.92500
O107        O  0.42991700  0.20539069  0.38823853    -0.82000
H108        H  0.38157899  0.35555943  0.45187859    -0.06500
C109        C  0.31629845  0.23929508  0.53570311     0.87400
O110        O  0.42512901  0.27744185  0.55966296    -0.75700
O111        O  0.37172491  0.22327929  0.43109065    -0.88400
O112        O  0.30269420  0.34899479  0.48279838    -0.81200
C113        C  0.31656042  0.29035789  0.36893091     0.92600
C114        C  0.42795847  0.22894265  0.35926614     0.92500
Mg115      Mg  0.34447701  0.31560432  0.55967841     1.58000
O116        O  0.32036701  0.29349365  0.61435305    -0.81200
O117        O  0.36777727  0.34326862  0.50708328    -0.75400
O118        O  0.34241779  0.27993363  0.36752577    -0.81200
O119        O  0.44038734  0.14123689  0.45534086    -0.83000
O120        O  0.41041860  0.22293544  0.63452524    -0.81300
C121        C  0.36967576  0.33575760  0.47043348     0.86900
O122        O  0.37964756  0.27831625  0.57116197    -0.88400
O123        O  0.32696532  0.27015517  0.52321197    -0.88500
O124        O  0.32897317  0.21734990  0.56028003    -0.75600
Mg125      Mg  0.38193486  0.28022099  0.40750885     1.58000
O126        O  0.30457014  0.30013361  0.40111816    -0.82900
H127        H  0.45608615  0.26935267  0.47781660    -0.06700
O128        O  0.39278250  0.19531936  0.54716483    -0.88200
H129        H  0.36962917  0.14627478  0.55154979    -0.06500
H130        H  0.40439711  0.32478535  0.58226262    -0.06700
C131        C  0.38155229  0.16569888  0.53262435     0.86900
C132        C  0.43560029  0.26095483  0.46678261     0.87500
C133        C  0.40296637  0.29462760  0.57194060     0.87500
H134        H  0.29594856  0.23025423  0.52470323    -0.06700
O135        O  0.32621373  0.22387891  0.44220755    -0.75700
Mg136      Mg  0.37046905  0.22150480  0.59528554     1.58000
H137        H  0.34701446  0.17712362  0.41859464    -0.06700
C138        C  0.45186756  0.13159530  0.48763787     0.92500
O139        O  0.44768419  0.20051580  0.60087590    -0.82900
C140        C  0.43604162  0.21149146  0.63291685     0.92600
O141        O  0.40854310  0.25483745  0.35745624    -0.82900
Mg142      Mg  0.31648341  0.28641997  0.46410487     1.58200
O143        O  0.45000326  0.15321160  0.51834228    -0.81200
O144        O  0.30860758  0.35752061  0.54734602    -0.82900
O145        O  0.17154394  0.72841114  0.47318648    -0.88500
C146        C  0.09401581  0.70155597  0.43090845     0.87500
Mg147      Mg  0.18449451  0.71617791  0.53188509     1.58100
O148        O  0.10552362  0.80171286  0.45028901    -0.88200
O149        O  0.16850922  0.77926875  0.43376099    -0.75600
C150        C  0.07674636  0.77719986  0.64299983     0.92600
O151        O  0.13130635  0.65650798  0.49663679    -0.75400
O152        O  0.09665219  0.75198215  0.64438293    -0.82900
Mg153      Mg  0.15268664  0.68054635  0.44091478     1.58000
C154        C  0.04895687  0.86888437  0.50892076     0.92500
O155        O  0.17484775  0.69959769  0.38396392    -0.81200
H156        H  0.12840237  0.85058906  0.44243360    -0.06500
C157        C  0.06563301  0.74041696  0.53694935     0.87400
O158        O  0.17508429  0.77970071  0.55116301    -0.75700
O159        O  0.11738539  0.71769555  0.42922812    -0.88400
O160        O  0.05103617  0.84649061  0.47889509    -0.81200
C161        C  0.05902298  0.78259655  0.36787336     0.92600
C162        C  0.17115846  0.72148510  0.35400705     0.92500
Mg163      Mg  0.09514829  0.81770182  0.55505602     1.58000
O164        O  0.07329298  0.79927593  0.61303919    -0.81200
O165        O  0.11668357  0.84146799  0.49916539    -0.75400
O166        O  0.08457128  0.77094525  0.36442245    -0.81200
O167        O  0.18866082  0.63808445  0.45358675    -0.83000
O168        O  0.16291243  0.72673256  0.63036310    -0.81300
C169        C  0.11698406  0.83209334  0.46283411     0.86900
O170        O  0.13023583  0.78066968  0.56677261    -0.88400
O171        O  0.07609397  0.77040754  0.52228047    -0.88500
O172        O  0.07904512  0.71933008  0.56145647    -0.75600
Mg173      Mg  0.12599565  0.77350541  0.40187766     1.58000
O174        O  0.04903021  0.79436530  0.40068704    -0.82900
H175        H  0.20275588  0.76758042  0.46740003    -0.06700
O176        O  0.14239889  0.69686675  0.54500085    -0.88200
H177        H  0.12004634  0.64765610  0.55358011    -0.06500
H178        H  0.15523666  0.82761162  0.57403523    -0.06700
C179        C  0.13117234  0.66616153  0.53287673     0.86900
C180        C  0.18196423  0.75833651  0.45833666     0.87500
C181        C  0.15349088  0.79708094  0.56498867     0.87500
H182        H  0.04483780  0.73126330  0.52780168    -0.06700
O183        O  0.07239543  0.71938415  0.44413924    -0.75700
Mg184      Mg  0.12154947  0.72465119  0.59352959     1.58000
H185        H  0.09214155  0.67095779  0.42212841    -0.06700
C186        C  0.20019894  0.63033279  0.48644620     0.92500
O187        O  0.19903719  0.70532336  0.59375353    -0.82900
C188        C  0.18858801  0.71579069  0.62665840     0.92600
O189        O  0.15068995  0.74569103  0.35184562    -0.82900
Mg190      Mg  0.06346308  0.78323525  0.46312643     1.58200
O191        O  0.19839254  0.65367729  0.51577510    -0.81200
O192        O  0.05935243  0.85973776  0.54215315    -0.82900
C193        C  0.46691916  0.09344060  0.49002082     0.01200
C194        C  0.46241384  0.06860791  0.52284012     0.04000
C195        C  0.47641883  0.03223118  0.52526060    -0.12100
C196        C  0.49407480  0.01968013  0.49435731     0.23300
C197        C  0.49816183  0.04371585  0.46119127    -0.12600
C198        C  0.48486334  0.08071251  0.45907514     0.04700
C199        C  0.00836730  0.98104983  0.49688911     0.27100
C200        C  0.03603673  0.97892353  0.51155030    -0.13300
C201        C  0.04944777  0.94218426  0.51484443     0.05200
C202        C  0.03486098  0.90732414  0.50460168    -0.09300
C203        C  0.00738950  0.90962182  0.48888061     0.06000
C204        C  0.49421647  0.94651961  0.48492444    -0.13700
Br205      Br  0.02205005  0.02554303  0.41870046    -0.05700
Br206      Br  0.43530703  0.08226282  0.56327788    -0.00100
Br207      Br  0.08857641  0.94011395  0.53036877     0.00400
Br208      Br  0.45681034  0.95007197  0.46297865    -0.04100
Br209      Br  0.49220387  0.11386403  0.41408226     0.00500
Br210      Br  0.47138864  0.99917463  0.57090399    -0.03400
Br211      Br  0.05551723  0.02657240  0.52682971    -0.04200
Br212      Br  0.48747641  0.86237025  0.47343564    -0.00200
C213        C  0.21540205  0.59258256  0.49153270     0.01200
C214        C  0.23615351  0.58039185  0.46418210     0.04000
C215        C  0.24991546  0.54394647  0.46904799    -0.12100
C216        C  0.24350904  0.52001072  0.50168301     0.23300
C217        C  0.22335243  0.53252555  0.52949158    -0.12600
C218        C  0.20893067  0.56829115  0.52408850     0.04700
C219        C  0.25737841  0.48109148  0.50614087     0.27100
C220        C  0.24410902  0.44684718  0.49157633    -0.13300
C221        C  0.25757731  0.41001730  0.49455687     0.05200
C222        C  0.28438404  0.40729756  0.51230807    -0.09300
C223        C  0.29743727  0.44163143  0.52747299     0.06000
C224        C  0.28382839  0.47835857  0.52464007    -0.13700
Br225      Br  0.21541983  0.50026128  0.57487786    -0.05700
Br226      Br  0.24666554  0.61407311  0.42089940    -0.00100
Br227      Br  0.23874527  0.36322077  0.47551148     0.00400
Br228      Br  0.30128046  0.52512794  0.54614167    -0.04100
Br229      Br  0.17882210  0.58217564  0.55997595     0.00500
Br230      Br  0.27750109  0.52644108  0.43094356    -0.03400
Br231      Br  0.20727183  0.45060078  0.46786373    -0.04200
Br232      Br  0.33476454  0.43910375  0.55002049    -0.00200
C233        C  0.45618364  0.78757125  0.83428157     0.01200
C234        C  0.46910211  0.82270153  0.82117089     0.04000
C235        C  0.48856419  0.82169776  0.78972194    -0.12100
C236        C  0.49589680  0.78549351  0.77195720     0.23300
C237        C  0.48289238  0.75043683  0.78478693    -0.12600
C238        C  0.46302190  0.75145641  0.81571752     0.04700
C239        C  0.01684559  0.78431111  0.73919865     0.27100
C240        C  0.00757121  0.78633279  0.69996544    -0.13300
C241        C  0.02705022  0.78365663  0.66869467     0.05200
C242        C  0.05633658  0.78020420  0.67642022    -0.09300
C243        C  0.06560131  0.77874735  0.71604716     0.06000
C244        C  0.04586358  0.78056091  0.74720817    -0.13700
Br245      Br  0.49253729  0.70097323  0.75989348    -0.05700
Br246      Br  0.45980397  0.87242028  0.84575293    -0.00100
Br247      Br  0.01274984  0.78180516  0.61543582     0.00400
Br248      Br  0.05839743  0.77801848  0.80117489    -0.04100
Br249      Br  0.44644907  0.70290573  0.83409688     0.00500
Br250      Br  0.00494208  0.86992160  0.77025116    -0.03400
Br251      Br  0.46784861  0.79266237  0.68931973    -0.04200
Br252      Br  0.10529986  0.77573078  0.72831586    -0.00200
C253        C  0.43995261  0.77848934  0.17548584     0.01200
C254        C  0.44251653  0.81265701  0.19903465     0.04000
C255        C  0.46226597  0.81385726  0.23007053    -0.12100
C256        C  0.48019214  0.78138814  0.23689603     0.23300
C257        C  0.47795640  0.74754150  0.21283561    -0.12600
C258        C  0.45775078  0.74593801  0.18252043     0.04700
C259        C  0.00066807  0.78200153  0.27022668     0.27100
C260        C  0.02740398  0.79977324  0.26591367    -0.13300
C261        C  0.04673303  0.79989283  0.29754443     0.05200
C262        C  0.03967165  0.78133593  0.33342128    -0.09300
C263        C  0.01319775  0.76245219  0.33708712     0.06000
C264        C  0.99363504  0.76349900  0.30596993    -0.13700
Br265      Br  0.50272323  0.70331226  0.22154844    -0.05700
Br266      Br  0.41835696  0.85730720  0.18944890    -0.00100
Br267      Br  0.08227422  0.82701249  0.29212399     0.00400
Br268      Br  0.45695827  0.73958015  0.31221306    -0.04100
Br269      Br  0.45519090  0.69950275  0.14961012     0.00500
Br270      Br  0.96431486  0.85948611  0.26401850    -0.03400
Br271      Br  0.03744322  0.82375711  0.21643728    -0.04200
Br272      Br  0.00416436  0.73283597  0.38392664    -0.00200
C273        C  0.20749175  0.71622620  0.66115086     0.01200
C274        C  0.22187459  0.68158058  0.67221381     0.04000
C275        C  0.24191958  0.68279675  0.70267932    -0.12100
C276        C  0.24795956  0.71873193  0.72185427     0.23300
C277        C  0.23350372  0.75330038  0.71101202    -0.12600
C278        C  0.21321954  0.75204774  0.68084866     0.04700
C279        C  0.26835033  0.71973158  0.75494405     0.27100
C280        C  0.25830983  0.71802363  0.79388342    -0.13300
C281        C  0.27729527  0.71945316  0.82559924     0.05200
C282        C  0.30673444  0.72085372  0.81855277    -0.09300
C283        C  0.31675321  0.72205056  0.77925619     0.06000
C284        C  0.29752969  0.72257603  0.74764855    -0.13700
Br285      Br  0.24167715  0.80238454  0.73760313    -0.05700
Br286      Br  0.21351796  0.63210015  0.64650720    -0.00100
Br287      Br  0.26229038  0.72265030  0.87846923     0.00400
Br288      Br  0.31093079  0.72856101  0.69429772    -0.04100
Br289      Br  0.19435747  0.79991030  0.66529184     0.00500
Br290      Br  0.26082288  0.63514534  0.71877330    -0.03400
Br291      Br  0.21820654  0.71476955  0.80355459    -0.04200
Br292      Br  0.35671779  0.72113469  0.76815898    -0.00200
C293        C  0.29021082  0.71516263  0.16270791     0.01200
C294        C  0.27829183  0.68026058  0.17786739     0.04000
C295        C  0.26003829  0.68203958  0.21053739    -0.12100
C296        C  0.25249602  0.71878879  0.22687248     0.23300
C297        C  0.26430343  0.75371135  0.21175892    -0.12600
C298        C  0.28353897  0.75184794  0.18018428     0.04700
C299        C  0.23168102  0.72043036  0.25946534     0.27100
C300        C  0.20262321  0.71953062  0.25104200    -0.13300
C301        C  0.18278312  0.71859766  0.28188433     0.05200
C302        C  0.19193620  0.71977362  0.32142669    -0.09300
C303        C  0.22119661  0.72095821  0.32974272     0.06000
C304        C  0.24094364  0.72082283  0.29877608    -0.13700
Br305      Br  0.25352279  0.80405642  0.23377743    -0.05700
Br306      Br  0.28704949  0.62995552  0.15418966    -0.00100
Br307      Br  0.14321595  0.71312128  0.26962796     0.00400
Br308      Br  0.28085285  0.72077380  0.30994467    -0.04100
Br309      Br  0.29964796  0.79983600  0.15963708     0.00500
Br310      Br  0.24533875  0.63422188  0.23340051    -0.03400
Br311      Br  0.19013507  0.71919938  0.19699316    -0.04200
Br312      Br  0.23474064  0.72464853  0.38329381    -0.00200
C313        C  0.45340816  0.21277679  0.66895259     0.01200
C314        C  0.46373306  0.17771051  0.68571950     0.04000
C315        C  0.48278085  0.17944358  0.71746026    -0.12100
C316        C  0.49151804  0.21625498  0.73257639     0.23300
C317        C  0.48060697  0.25128111  0.71648800    -0.12600
C318        C  0.46145053  0.24954422  0.68492818     0.04700
C319        C  0.01265210  0.21815316  0.76480557     0.27100
C320        C  0.00376383  0.22113606  0.80427332    -0.13300
C321        C  0.02378288  0.22291180  0.83479237     0.05200
C322        C  0.05296252  0.22090716  0.82606922    -0.09300
C323        C  0.06178917  0.21810742  0.78632778     0.06000
C324        C  0.04166111  0.21724161  0.75584861    -0.13700
Br325      Br  0.49279936  0.30165087  0.73686697    -0.05700
Br326      Br  0.45118738  0.12737638  0.66580844    -0.00100
Br327      Br  0.01087865  0.23068468  0.88830580     0.00400
Br328      Br  0.05363248  0.21540960  0.70149591    -0.04100
Br329      Br  0.44717800  0.29769548  0.66242900     0.00500
Br330      Br  0.99746253  0.13150690  0.73985089    -0.03400
Br331      Br  0.46399947  0.22348701  0.81630011    -0.04200
Br332      Br  0.10130015  0.21365259  0.77325989    -0.00200
C333        C  0.04985183  0.21308786  0.17154515     0.01200
C334        C  0.04602222  0.24938543  0.19135583     0.04000
C335        C  0.02729731  0.25199486  0.22347545    -0.12100
C336        C  0.01260046  0.21826584  0.23623926     0.23300
C337        C  0.01737918  0.18163668  0.21762165    -0.12600
C338        C  0.03570319  0.17911449  0.18503097     0.04700
C339        C  0.49100066  0.22163855  0.26782415     0.27100
C340        C  0.49905788  0.22130706  0.30766484    -0.13300
C341        C  0.47847446  0.22415281  0.33747132     0.05200
C342        C  0.44951159  0.22656699  0.32756309    -0.09300
C343        C  0.44154633  0.22695788  0.28747921     0.06000
C344        C  0.46228754  0.22496944  0.25778214    -0.13700
Br345      Br  0.99837394  0.13511424  0.23662299    -0.05700
Br346      Br  0.06477376  0.29631345  0.17276645    -0.00100
Br347      Br  0.49053869  0.22692697  0.39176709     0.00400
Br348      Br  0.45153052  0.22698180  0.20301934    -0.04100
Br349      Br  0.04149694  0.12906200  0.15898129     0.00500
Br350      Br  0.02085684  0.30208746  0.24913942    -0.03400
Br351      Br  0.03846089  0.21719663  0.32122346    -0.04200
Br352      Br  0.40225029  0.22805759  0.27277420    -0.00200
C353        C  0.30364731  0.27256584  0.67667070     0.01200
C354        C  0.31220313  0.28350399  0.71494156     0.04000
C355        C  0.29235129  0.28471617  0.74585124    -0.12100
C356        C  0.26394370  0.27472018  0.73864819     0.23300
C357        C  0.25543869  0.26358410  0.70048487    -0.12600
C358        C  0.27519822  0.26263090  0.66954292     0.04700
C359        C  0.24302314  0.27558271  0.77124514     0.27100
C360        C  0.24125637  0.24367820  0.79758110    -0.13300
C361        C  0.22202483  0.24497969  0.82914265     0.05200
C362        C  0.20422486  0.27789842  0.83413786    -0.09300
C363        C  0.20547612  0.30935026  0.80734350     0.06000
C364        C  0.22486995  0.30823472  0.77590828    -0.13700
Br365      Br  0.21666773  0.24916987  0.69087613    -0.05700
Br366      Br  0.35086518  0.29831025  0.72469247    -0.00100
Br367      Br  0.22033185  0.20193003  0.86602972     0.00400
Br368      Br  0.22691276  0.35160565  0.73948978    -0.04100
Br369      Br  0.26340119  0.24602783  0.61768772     0.00500
Br370      Br  0.30390290  0.30037713  0.79809034    -0.03400
Br371      Br  0.26528271  0.19828424  0.79036446    -0.04200
Br372      Br  0.18115135  0.35434496  0.81458961    -0.00200
C373        C  0.29940132  0.28977186  0.33245063     0.01200
C374        C  0.28202802  0.32223223  0.32305414     0.04000
C375        C  0.26309643  0.31977376  0.29124010    -0.12100
C376        C  0.26142512  0.28498143  0.26855640     0.23300
C377        C  0.27953179  0.25316532  0.27678399    -0.12600
C378        C  0.29851090  0.25548664  0.30856625     0.04700
C379        C  0.24022516  0.28149830  0.23651000     0.27100
C380        C  0.21230931  0.27045459  0.24535980    -0.13300
C381        C  0.19201880  0.26757975  0.21519234     0.05200
C382        C  0.19990206  0.27390635  0.17539858    -0.09300
C383        C  0.22839710  0.28358876  0.16666891     0.06000
C384        C  0.24810290  0.28861340  0.19725686    -0.13700
Br385      Br  0.27755760  0.20586057  0.24504495    -0.05700
Br386      Br  0.28467793  0.37068442  0.35293802    -0.00100
Br387      Br  0.15332353  0.25681495  0.22955701     0.00400
Br388      Br  0.28613282  0.30545147  0.18567481    -0.04100
Br389      Br  0.32179960  0.21038933  0.32052481     0.00500
Br390      Br  0.23910209  0.36389113  0.27875775    -0.03400
Br391      Br  0.20205902  0.25911560  0.29920229    -0.04200
Br392      Br  0.24172583  0.28718221  0.11290479    -0.00200
C393        C  0.03030208  0.09446870  0.99531350     0.01200
C394        C  0.00428529  0.09371633  0.01572926     0.04000
C395        C  0.48912385  0.05819239  0.01879140    -0.12100
C396        C  0.99987829  0.02352138  0.00149587     0.23300
C397        C  0.02564628  0.02422262  0.98097725    -0.12600
C398        C  0.04102668  0.05944812  0.97824907     0.04700
C399        C  0.48463178  0.98577391  0.00549985     0.27100
C400        C  0.99124511  0.96030415  0.03673851    -0.13300
C401        C  0.47843855  0.92302998  0.03901441     0.05200
C402        C  0.45914411  0.91101314  0.00967580    -0.09300
C403        C  0.45229592  0.93692202  0.97861314     0.06000
C404        C  0.46502426  0.97426554  0.97665171    -0.13700
Br405      Br  0.03989837  0.97647136  0.95691982    -0.05700
Br406      Br  0.98880413  0.14128453  0.03860075    -0.00100
Br407      Br  0.98852432  0.88801481  0.08145574     0.00400
Br408      Br  0.45590183  0.00981309  0.93430895    -0.04100
Br409      Br  0.07777499  0.05853985  0.95354535     0.00500
Br410      Br  0.45355778  0.05673345  0.04647184    -0.03400
Br411      Br  0.01850260  0.97635916  0.07579729    -0.04200
Br412      Br  0.42453342  0.92246900  0.93953792    -0.00200
C413        C  0.21595962  0.40441683  0.00745451     0.01200
C414        C  0.20537495  0.43730800  0.02879009     0.04000
C415        C  0.21854353  0.47429951  0.02548440    -0.12100
C416        C  0.24212152  0.47887960  0.00076833     0.23300
C417        C  0.25272572  0.44643233  0.97943749    -0.12600
C418        C  0.23972557  0.40927532  0.98264495     0.04700
C419        C  0.25580510  0.51796195  0.99711679     0.27100
C420        C  0.24838551  0.54321408  0.96602285    -0.13300
C421        C  0.26180377  0.58000171  0.96202087     0.05200
C422        C  0.28275219  0.59161890  0.98919652    -0.09300
C423        C  0.28984765  0.56633952  0.02070060     0.06000
C424        C  0.27634764  0.52966026  0.02460823    -0.13700
Br425      Br  0.28534693  0.45319409  0.94601579    -0.05700
Br426      Br  0.17178765  0.43313717  0.06094803    -0.00100
Br427      Br  0.25036098  0.61504421  0.92040954     0.00400
Br428      Br  0.28609081  0.49499914  0.06743873    -0.04100
Br429      Br  0.25553300  0.36512213  0.95400394     0.00500
Br430      Br  0.20420250  0.51917940  0.05448446    -0.03400
Br431      Br  0.21959521  0.52721402  0.92917620    -0.04200
Br432      Br  0.31907450  0.58062850  0.05769358    -0.00200
O433        O  0.67450561  0.26692826  0.02307601    -0.88500
C434        C  0.59934109  0.29338232  0.07201521     0.87500
Mg435      Mg  0.68469136  0.28120347  0.96376442     1.58100
O436        O  0.60858308  0.19372879  0.04813370    -0.88200
O437        O  0.67292290  0.21408347  0.05987383    -0.75600
C438        C  0.57387700  0.22279422  0.85856423     0.92600
O439        O  0.63384903  0.33899134  0.00462821    -0.75400
O440        O  0.59454150  0.24664153  0.85613455    -0.82900
Mg441      Mg  0.65726261  0.31342780  0.05821789     1.58000
C442        C  0.54664968  0.13137078  0.99219549     0.92500
O443        O  0.68072924  0.29377163  0.11376187    -0.81200
H444        H  0.62958298  0.14295723  0.05367706    -0.06500
C445        C  0.56576875  0.25800474  0.96599755     0.87400
O446        O  0.67450186  0.21755568  0.94463538    -0.75700
O447        O  0.62247555  0.27655324  0.07145913    -0.88400
O448        O  0.55118394  0.15169628  0.02317065    -0.81200
C449        C  0.56675992  0.21163151  0.13497569     0.92600
C450        C  0.67878449  0.27050376  0.14298110     0.92500
Mg451      Mg  0.59332306  0.18061857  0.94472194     1.58000
O452        O  0.57015613  0.20117170  0.88877138    -0.81200
O453        O  0.61591863  0.15373979  0.99816984    -0.75400
O454        O  0.59271658  0.22157892  0.13600712    -0.81200
O455        O  0.69347133  0.35409255  0.04430833    -0.83000
O456        O  0.66049894  0.26930866  0.86742182    -0.81300
C457        C  0.61819973  0.16262482  0.03444595     0.86900
O458        O  0.62911961  0.21638950  0.93191155    -0.88400
O459        O  0.57661295  0.22791176  0.97978614    -0.88500
O460        O  0.57843985  0.27893426  0.94050355    -0.75600
Mg461      Mg  0.63198935  0.21937576  0.09547808     1.58000
O462        O  0.55445694  0.20180829  0.10313749    -0.82900
H463        H  0.70589742  0.22767660  0.02433697    -0.06700
O464        O  0.64219840  0.29962026  0.95438537    -0.88200
H465        H  0.61955559  0.34905419  0.94927614    -0.06500
H466        H  0.65392770  0.16937126  0.92363485    -0.06700
C467        C  0.63163658  0.33003356  0.96832686     0.86900
C468        C  0.68550076  0.23638096  0.03555651     0.87500
C469        C  0.65243420  0.19996806  0.93252972     0.87500
H470        H  0.54531522  0.26722650  0.97655115    -0.06700
O471        O  0.57706030  0.27674845  0.05958316    -0.75700
Mg472      Mg  0.62024034  0.27286107  0.90630974     1.58000
H473        H  0.59826142  0.32371099  0.08190926    -0.06700
C474        C  0.70176582  0.36556527  0.01067621     0.92500
O475        O  0.69727541  0.29289032  0.90102673    -0.82900
C476        C  0.68614460  0.28055072  0.86930922     0.92600
O477        O  0.65948930  0.24439549  0.14463481    -0.82900
Mg478      Mg  0.56622700  0.21394609  0.03968473     1.58200
O479        O  0.69757829  0.34497084  0.97973686    -0.81200
O480        O  0.55627999  0.14136677  0.95872978    -0.82900
O481        O  0.91960474  0.77264304  0.02253711    -0.88500
C482        C  0.84193398  0.79598048  0.06639105     0.87500
Mg483      Mg  0.93236633  0.78710299  0.96395676     1.58100
O484        O  0.85430003  0.69673768  0.04443994    -0.88200
O485        O  0.91738692  0.72046724  0.06037126    -0.75600
C486        C  0.82657686  0.72327338  0.85231454     0.92600
O487        O  0.87747490  0.84249120  0.00135795    -0.75400
O488        O  0.84646654  0.74850403  0.85141140    -0.82900
Mg489      Mg  0.89966293  0.81845920  0.05648472     1.58000
C490        C  0.79745878  0.62983734  0.98494737     0.92500
O491        O  0.92289494  0.79949131  0.11323455    -0.81200
H492        H  0.87720110  0.64787741  0.05182471    -0.06500
C493        C  0.81382318  0.75857574  0.95855100     0.87400
O494        O  0.92420791  0.72339692  0.94349606    -0.75700
O495        O  0.86538950  0.78009223  0.06749162    -0.88400
O496        O  0.79898781  0.65247614  0.01486572    -0.81200
C497        C  0.80844701  0.71387823  0.12742631     0.92600
C498        C  0.91941613  0.77676069  0.14268677     0.92500
Mg499      Mg  0.84433532  0.68211445  0.93982916     1.58000
O500        O  0.82260430  0.70101295  0.88204531    -0.81200
O501        O  0.86578035  0.65767827  0.99518169    -0.75400
O502        O  0.83405502  0.72515373  0.13026892    -0.81200
O503        O  0.93389895  0.86234356  0.04460846    -0.83000
O504        O  0.91182939  0.77553255  0.86576540    -0.81300
C505        C  0.86585461  0.66656453  0.03160198     0.86900
O506        O  0.87923654  0.72044565  0.92900003    -0.88400
O507        O  0.82454189  0.72874698  0.97312268    -0.88500
O508        O  0.82714193  0.78012172  0.93421993    -0.75600
Mg509      Mg  0.87501975  0.72417144  0.09307956     1.58000
O510        O  0.79767458  0.70285146  0.09488269    -0.82900
H511        H  0.95133768  0.73414197  0.02668279    -0.06700
O512        O  0.88989525  0.80461500  0.95147489    -0.88200
H513        H  0.86573587  0.85241619  0.94485107    -0.06500
H514        H  0.90521837  0.67468093  0.92087876    -0.06700
C515        C  0.87758917  0.83404204  0.96479381     0.86900
C516        C  0.93047073  0.74255047  0.03632070     0.87500
C517        C  0.90285185  0.70503555  0.93023475     0.87500
H518        H  0.79284201  0.76713653  0.96755574    -0.06700
O519        O  0.82048300  0.77840500  0.05249694    -0.75700
Mg520      Mg  0.87007310  0.77636305  0.90252622     1.58000
H521        H  0.83988013  0.82627524  0.07608379    -0.06700
C522        C  0.94523678  0.87222100  0.01222906     0.92500
O523        O  0.94711493  0.79992419  0.90179615    -0.82900
C524        C  0.93717371  0.78802807  0.86906477     0.92600
O525        O  0.89956205  0.75145876  0.14400985    -0.82900
Mg526      Mg  0.81189568  0.71505403  0.03223247     1.58200
O527        O  0.94436692  0.85017786  0.98178758    -0.81200
O528        O  0.80878918  0.63868024  0.95210926    -0.82900
O529        O  0.92453386  0.23030442  0.47904706    -0.88500
C530        C  0.84839293  0.20706030  0.42958208     0.87500
Mg531      Mg  0.93538451  0.21476611  0.53794212     1.58100
O532        O  0.85915576  0.30577030  0.45558482    -0.88200
O533        O  0.92310258  0.28362749  0.44277964    -0.75600
C534        C  0.82424409  0.27119950  0.64397908     0.92600
O535        O  0.88249109  0.15835570  0.49589970    -0.75400
O536        O  0.84485618  0.24726238  0.64585794    -0.82900
Mg537      Mg  0.90585517  0.18483899  0.44300248     1.58000
C538        C  0.79916702  0.36898740  0.51431866     0.92500
O539        O  0.92991712  0.20539072  0.38823827    -0.82000
H540        H  0.88157912  0.35555944  0.45187835    -0.06500
C541        C  0.81629843  0.23929506  0.53570298     0.87400
O542        O  0.92512903  0.27744184  0.55966265    -0.75700
O543        O  0.87172491  0.22327927  0.43109043    -0.88400
O544        O  0.80269418  0.34899480  0.48279838    -0.81200
C545        C  0.81656045  0.29035800  0.36893078     0.92600
C546        C  0.92795852  0.22894265  0.35926587     0.92500
Mg547      Mg  0.84447704  0.31560428  0.55967826     1.58000
O548        O  0.82036715  0.29349353  0.61435289    -0.81200
O549        O  0.86777724  0.34326863  0.50708303    -0.75400
O550        O  0.84241782  0.27993376  0.36752556    -0.81200
O551        O  0.94038746  0.14123698  0.45534043    -0.83000
O552        O  0.91041870  0.22293526  0.63452493    -0.81300
C553        C  0.86967578  0.33575758  0.47043326     0.86900
O554        O  0.87964757  0.27831616  0.57116169    -0.88400
O555        O  0.82696529  0.27015516  0.52321183    -0.88500
O556        O  0.82897315  0.21734989  0.56027989    -0.75600
Mg557      Mg  0.88193490  0.28022098  0.40750864     1.58000
O558        O  0.80457019  0.30013363  0.40111806    -0.82900
H559        H  0.95608607  0.26935283  0.47781648    -0.06700
O560        O  0.89278259  0.19531934  0.54716452    -0.88200
H561        H  0.86962932  0.14627474  0.55154954    -0.06500
H562        H  0.90439707  0.32478530  0.58226231    -0.06700
C563        C  0.88155238  0.16569885  0.53262406     0.86900
C564        C  0.93560032  0.26095488  0.46678244     0.87500
C565        C  0.90296637  0.29462753  0.57194031     0.87500
H566        H  0.79594855  0.23025416  0.52470305    -0.06700
O567        O  0.82621371  0.22387895  0.44220733    -0.75700
Mg568      Mg  0.87046914  0.22150468  0.59528526     1.58000
H569        H  0.84701443  0.17712360  0.41859461    -0.06700
C570        C  0.95186764  0.13159538  0.48763745     0.92500
O571        O  0.94768435  0.20051582  0.60087557    -0.82900
C572        C  0.93604175  0.21149146  0.63291652     0.92600
O573        O  0.90854313  0.25483740  0.35745600    -0.82900
Mg574      Mg  0.81648343  0.28641999  0.46410471     1.58200
O575        O  0.95000332  0.15321166  0.51834186    -0.81200
O576        O  0.80860756  0.35752052  0.54734605    -0.82900
O577        O  0.67154376  0.72841079  0.47318653    -0.88500
C578        C  0.59401558  0.70155582  0.43090853     0.87500
Mg579      Mg  0.68449438  0.71617756  0.53188510     1.58100
O580        O  0.60552361  0.80171272  0.45028900    -0.88200
O581        O  0.66850917  0.77926832  0.43376092    -0.75600
C582        C  0.57674643  0.77719964  0.64299978     0.92600
O583        O  0.63130610  0.65650770  0.49663680    -0.75400
O584        O  0.59665219  0.75198186  0.64438287    -0.82900
Mg585      Mg  0.65268638  0.68054608  0.44091480     1.58000
C586        C  0.54895695  0.86888436  0.50892082     0.92500
O587        O  0.67484755  0.69959724  0.38396393    -0.81200
H588        H  0.62840246  0.85058884  0.44243353    -0.06500
C589        C  0.56563295  0.74041694  0.53694935     0.87400
O590        O  0.67508425  0.77970043  0.55116302    -0.75700
O591        O  0.61738516  0.71769541  0.42922821    -0.88400
O592        O  0.55103617  0.84649063  0.47889512    -0.81200
C593        C  0.55902286  0.78259650  0.36787339     0.92600
C594        C  0.67115834  0.72148466  0.35400707     0.92500
Mg595      Mg  0.59514839  0.81770164  0.55505600     1.58000
O596        O  0.57329311  0.79927576  0.61303915    -0.81200
O597        O  0.61668373  0.84146774  0.49916539    -0.75400
O598        O  0.58457112  0.77094501  0.36442244    -0.81200
O599        O  0.68866053  0.63808412  0.45358679    -0.83000
O600        O  0.66291230  0.72673221  0.63036309    -0.81300
C601        C  0.61698413  0.83209312  0.46283411     0.86900
O602        O  0.63023582  0.78066943  0.56677262    -0.88400
O603        O  0.57609392  0.77040750  0.52228046    -0.88500
O604        O  0.57904505  0.71933004  0.56145646    -0.75600
Mg605      Mg  0.62599555  0.77350515  0.40187763     1.58000
O606        O  0.54903015  0.79436534  0.40068705    -0.82900
H607        H  0.70275585  0.76757990  0.46740003    -0.06700
O608        O  0.64239875  0.69686645  0.54500082    -0.88200
H609        H  0.62004630  0.64765573  0.55358016    -0.06500
H610        H  0.65523663  0.82761151  0.57403518    -0.06700
C611        C  0.63117218  0.66616120  0.53287674     0.86900
C612        C  0.68196410  0.75833606  0.45833664     0.87500
C613        C  0.65349084  0.79708063  0.56498864     0.87500
H614        H  0.54483773  0.73126332  0.52780170    -0.06700
O615        O  0.57239519  0.71938403  0.44413932    -0.75700
Mg616      Mg  0.62154939  0.72465094  0.59352957     1.58000
H617        H  0.59214134  0.67095769  0.42212861    -0.06700
C618        C  0.70019871  0.63033247  0.48644619     0.92500
O619        O  0.69903704  0.70532293  0.59375353    -0.82900
C620        C  0.68858785  0.71579025  0.62665841     0.92600
O621        O  0.65068987  0.74569068  0.35184563    -0.82900
Mg622      Mg  0.56346301  0.78323523  0.46312644     1.58200
O623        O  0.69839241  0.65367697  0.51577510    -0.81200
O624        O  0.55935263  0.85973772  0.54215313    -0.82900
C625        C  0.96691918  0.09344066  0.49002041     0.01200
C626        C  0.96241378  0.06860794  0.52283968     0.04000
C627        C  0.97641878  0.03223123  0.52526015    -0.12100
C628        C  0.99407483  0.01968021  0.49435692     0.23300
C629        C  0.99816185  0.04371592  0.46119086    -0.12600
C630        C  0.98486337  0.08071259  0.45907473     0.04700
C631        C  0.50836725  0.98104976  0.49688945     0.27100
C632        C  0.53603668  0.97892349  0.51155057    -0.13300
C633        C  0.54944774  0.94218423  0.51484469     0.05200
C634        C  0.53486099  0.90732410  0.50460189    -0.09300
C635        C  0.50738950  0.90962176  0.48888089     0.06000
C636        C  0.99421650  0.94651968  0.48492408    -0.13700
Br637      Br  0.52204981  0.02554275  0.41870072    -0.05700
Br638      Br  0.93530700  0.08226283  0.56327752    -0.00100
Br639      Br  0.58857639  0.94011397  0.53036879     0.00400
Br640      Br  0.95681032  0.95007199  0.46297837    -0.04100
Br641      Br  0.99220403  0.11386428  0.41408199     0.00500
Br642      Br  0.97138857  0.99917462  0.57090344    -0.03400
Br643      Br  0.55551719  0.02657242  0.52682973    -0.04200
Br644      Br  0.98747635  0.86237027  0.47343563    -0.00200
C645        C  0.71540178  0.59258226  0.49153267     0.01200
C646        C  0.73615320  0.58039155  0.46418198     0.04000
C647        C  0.74991519  0.54394621  0.46904794    -0.12100
C648        C  0.74350886  0.52001052  0.50168303     0.23300
C649        C  0.72335227  0.53252534  0.52949164    -0.12600
C650        C  0.70893046  0.56829091  0.52408859     0.04700
C651        C  0.75737831  0.48109132  0.50614092     0.27100
C652        C  0.74410903  0.44684703  0.49157615    -0.13300
C653        C  0.75757729  0.41001714  0.49455677     0.05200
C654        C  0.78438395  0.40729745  0.51230820    -0.09300
C655        C  0.79743715  0.44163131  0.52747323     0.06000
C656        C  0.78382824  0.47835846  0.52464030    -0.13700
Br657      Br  0.71541977  0.50026099  0.57487788    -0.05700
Br658      Br  0.74666525  0.61407278  0.42089917    -0.00100
Br659      Br  0.73874527  0.36322057  0.47551123     0.00400
Br660      Br  0.80128020  0.52512790  0.54614196    -0.04100
Br661      Br  0.67882188  0.58217534  0.55997618     0.00500
Br662      Br  0.77750083  0.52644078  0.43094355    -0.03400
Br663      Br  0.70727198  0.45060073  0.46786313    -0.04200
Br664      Br  0.83476445  0.43910353  0.55002078    -0.00200
C665        C  0.95618337  0.78757121  0.83428143     0.01200
C666        C  0.96910167  0.82270154  0.82117056     0.04000
C667        C  0.98856373  0.82169785  0.78972159    -0.12100
C668        C  0.99589655  0.78549357  0.77195705     0.23300
C669        C  0.98289230  0.75043684  0.78478695    -0.12600
C670        C  0.96302180  0.75145637  0.81571753     0.04700
C671        C  0.51684577  0.78431103  0.73919871     0.27100
C672        C  0.50757136  0.78633287  0.69996554    -0.13300
C673        C  0.52705032  0.78365665  0.66869470     0.05200
C674        C  0.55633665  0.78020404  0.67642016    -0.09300
C675        C  0.56560139  0.77874699  0.71604706     0.06000
C676        C  0.54586373  0.78056060  0.74720811    -0.13700
Br677      Br  0.99253745  0.70097321  0.75989376    -0.05700
Br678      Br  0.95980328  0.87242030  0.84575236    -0.00100
Br679      Br  0.51274995  0.78180574  0.61543583     0.00400
Br680      Br  0.55839761  0.77801760  0.80117472    -0.04100
Br681      Br  0.94644901  0.70290570  0.83409689     0.00500
Br682      Br  0.50494286  0.86992137  0.77025175    -0.03400
Br683      Br  0.96784838  0.79266150  0.68931946    -0.04200
Br684      Br  0.60529989  0.77572990  0.72831562    -0.00200
C685        C  0.93995266  0.77848930  0.17548581     0.01200
C686        C  0.94251651  0.81265694  0.19903469     0.04000
C687        C  0.96226606  0.81385730  0.23007043    -0.12100
C688        C  0.98019238  0.78138831  0.23689576     0.23300
C689        C  0.97795669  0.74754170  0.21283530    -0.12600
C690        C  0.95775100  0.74593808  0.18252022     0.04700
C691        C  0.50066787  0.78200141  0.27022688     0.27100
C692        C  0.52740371  0.79977339  0.26591388    -0.13300
C693        C  0.54673278  0.79989303  0.29754461     0.05200
C694        C  0.53967149  0.78133597  0.33342140    -0.09300
C695        C  0.51319766  0.76245210  0.33708728     0.06000
C696        C  0.49363494  0.76349877  0.30597011    -0.13700
Br697      Br  0.00272351  0.70331251  0.22154839    -0.05700
Br698      Br  0.91835669  0.85730693  0.18944921    -0.00100
Br699      Br  0.58227395  0.82701280  0.29212426     0.00400
Br700      Br  0.95695824  0.73958074  0.31221278    -0.04100
Br701      Br  0.95519125  0.69950280  0.14960985     0.00500
Br702      Br  0.46431490  0.85948613  0.26401850    -0.03400
Br703      Br  0.53744294  0.82375740  0.21643756    -0.04200
Br704      Br  0.50416432  0.73283598  0.38392691    -0.00200
C705        C  0.70749156  0.71622572  0.66115092     0.01200
C706        C  0.72187449  0.68158017  0.67221382     0.04000
C707        C  0.74191935  0.68279635  0.70267949    -0.12100
C708        C  0.74795919  0.71873151  0.72185457     0.23300
C709        C  0.73350324  0.75329987  0.71101240    -0.12600
C710        C  0.71321913  0.75204720  0.68084895     0.04700
C711        C  0.76835003  0.71973122  0.75494430     0.27100
C712        C  0.75830960  0.71802330  0.79388367    -0.13300
C713        C  0.77729504  0.71945290  0.82559946     0.05200
C714        C  0.80673420  0.72085350  0.81855300    -0.09300
C715        C  0.81675293  0.72205021  0.77925641     0.06000
C716        C  0.79752939  0.72257559  0.74764878    -0.13700
Br717      Br  0.74167646  0.80238398  0.73760371    -0.05700
Br718      Br  0.71351813  0.63209983  0.64650691    -0.00100
Br719      Br  0.76229012  0.72265030  0.87846935     0.00400
Br720      Br  0.81093050  0.72856070  0.69429800    -0.04100
Br721      Br  0.69435716  0.79990976  0.66529210     0.00500
Br722      Br  0.76082283  0.63514505  0.71877332    -0.03400
Br723      Br  0.71820638  0.71476896  0.80355491    -0.04200
Br724      Br  0.85671752  0.72113440  0.76815923    -0.00200
C725        C  0.79021093  0.71516226  0.16270817     0.01200
C726        C  0.77829217  0.68026016  0.17786785     0.04000
C727        C  0.76003857  0.68203907  0.21053781    -0.12100
C728        C  0.75249606  0.71878826  0.22687271     0.23300
C729        C  0.76430337  0.75371086  0.21175912    -0.12600
C730        C  0.78353892  0.75184751  0.18018450     0.04700
C731        C  0.73168102  0.72042978  0.25946552     0.27100
C732        C  0.70262323  0.71952981  0.25104213    -0.13300
C733        C  0.68278312  0.71859696  0.28188440     0.05200
C734        C  0.69193612  0.71977315  0.32142676    -0.09300
C735        C  0.72119651  0.72095788  0.32974287     0.06000
C736        C  0.74094359  0.72082252  0.29877628    -0.13700
Br737      Br  0.75352251  0.80405590  0.23377747    -0.05700
Br738      Br  0.78705007  0.62995517  0.15419025    -0.00100
Br739      Br  0.64321603  0.71312011  0.26962799     0.00400
Br740      Br  0.78085277  0.72077380  0.30994497    -0.04100
Br741      Br  0.79964774  0.79983556  0.15963731     0.00500
Br742      Br  0.74533914  0.63422134  0.23340105    -0.03400
Br743      Br  0.69013503  0.71919820  0.19699336    -0.04200
Br744      Br  0.73474039  0.72464825  0.38329405    -0.00200
C745        C  0.95340827  0.21277695  0.66895223     0.01200
C746        C  0.96373322  0.17771072  0.68571919     0.04000
C747        C  0.98278097  0.17944395  0.71745999    -0.12100
C748        C  0.99151801  0.21625539  0.73257617     0.23300
C749        C  0.98060682  0.25128145  0.71648777    -0.12600
C750        C  0.96145045  0.24954446  0.68492787     0.04700
C751        C  0.51265215  0.21815264  0.76480576     0.27100
C752        C  0.50376392  0.22113571  0.80427351    -0.13300
C753        C  0.52378301  0.22291133  0.83479250     0.05200
C754        C  0.55296263  0.22090648  0.82606936    -0.09300
C755        C  0.56178922  0.21810654  0.78632795     0.06000
C756        C  0.54166115  0.21724081  0.75584881    -0.13700
Br757      Br  0.99279909  0.30165123  0.73686670    -0.05700
Br758      Br  0.95118757  0.12737647  0.66580820    -0.00100
Br759      Br  0.51087896  0.23068468  0.88830587     0.00400
Br760      Br  0.55363246  0.21540870  0.70149612    -0.04100
Br761      Br  0.94717774  0.29769570  0.66242871     0.00500
Br762      Br  0.49746238  0.13150635  0.73985091    -0.03400
Br763      Br  0.96399937  0.22348729  0.81629983    -0.04200
Br764      Br  0.60130014  0.21365140  0.77326014    -0.00200
C765        C  0.54985183  0.21308787  0.17154526     0.01200
C766        C  0.54602242  0.24938536  0.19135619     0.04000
C767        C  0.52729758  0.25199475  0.22347590    -0.12100
C768        C  0.51260058  0.21826580  0.23623956     0.23300
C769        C  0.51737911  0.18163672  0.21762169    -0.12600
C770        C  0.53570310  0.17911451  0.18503096     0.04700
C771        C  0.99100054  0.22163855  0.26782379     0.27100
C772        C  0.99905781  0.22130729  0.30766448    -0.13300
C773        C  0.97847443  0.22415296  0.33747097     0.05200
C774        C  0.94951157  0.22656697  0.32756277    -0.09300
C775        C  0.94154622  0.22695757  0.28747890     0.06000
C776        C  0.96228739  0.22496910  0.25778176    -0.13700
Br777      Br  0.49837356  0.13511446  0.23662270    -0.05700
Br778      Br  0.56477432  0.29631337  0.17276731    -0.00100
Br779      Br  0.99053866  0.22692754  0.39176676     0.00400
Br780      Br  0.95153027  0.22698063  0.20301889    -0.04100
Br781      Br  0.54149666  0.12906204  0.15898102     0.00500
Br782      Br  0.52085743  0.30208719  0.24914029    -0.03400
Br783      Br  0.53846097  0.21719604  0.32122377    -0.04200
Br784      Br  0.90225010  0.22805671  0.27277417    -0.00200
C785        C  0.80364745  0.27256557  0.67667048     0.01200
C786        C  0.81220311  0.28350433  0.71494124     0.04000
C787        C  0.79235125  0.28471652  0.74585087    -0.12100
C788        C  0.76394377  0.27471983  0.73864792     0.23300
C789        C  0.75543893  0.26358312  0.70048471    -0.12600
C790        C  0.77519847  0.26263003  0.66954279     0.04700
C791        C  0.74302319  0.27558215  0.77124487     0.27100
C792        C  0.74125758  0.24367852  0.79758207    -0.13300
C793        C  0.72202623  0.24498011  0.82914387     0.05200
C794        C  0.70422512  0.27789785  0.83413790    -0.09300
C795        C  0.70547508  0.30934862  0.80734215     0.06000
C796        C  0.72486888  0.30823315  0.77590688    -0.13700
Br797      Br  0.71666826  0.24916750  0.69087613    -0.05700
Br798      Br  0.85086496  0.29831143  0.72469212    -0.00100
Br799      Br  0.72033477  0.20193181  0.86603264     0.00400
Br800      Br  0.72691019  0.35160295  0.73948686    -0.04100
Br801      Br  0.76340155  0.24602663  0.61768769     0.00500
Br802      Br  0.80390264  0.30037861  0.79808974    -0.03400
Br803      Br  0.76528535  0.19828575  0.79036684    -0.04200
Br804      Br  0.68114861  0.35434189  0.81458639    -0.00200
C805        C  0.79940130  0.28977206  0.33245058     0.01200
C806        C  0.78202802  0.32223248  0.32305422     0.04000
C807        C  0.76309637  0.31977409  0.29124022    -0.12100
C808        C  0.76142500  0.28498177  0.26855648     0.23300
C809        C  0.77953161  0.25316559  0.27678403    -0.12600
C810        C  0.79851079  0.25548686  0.30856622     0.04700
C811        C  0.74022503  0.28149867  0.23651007     0.27100
C812        C  0.71230919  0.27045494  0.24535986    -0.13300
C813        C  0.69201866  0.26758005  0.21519241     0.05200
C814        C  0.69990196  0.27390651  0.17539864    -0.09300
C815        C  0.72839699  0.28358887  0.16666896     0.06000
C816        C  0.74810275  0.28861361  0.19725691    -0.13700
Br817      Br  0.77755715  0.20586084  0.24504499    -0.05700
Br818      Br  0.78467828  0.37068471  0.35293799    -0.00100
Br819      Br  0.65332332  0.25681554  0.22955702     0.00400
Br820      Br  0.78613264  0.30545152  0.18567479    -0.04100
Br821      Br  0.82179953  0.21038958  0.32052476     0.00500
Br822      Br  0.73910225  0.36389168  0.27875777    -0.03400
Br823      Br  0.70205893  0.25911616  0.29920236    -0.04200
Br824      Br  0.74172576  0.28718220  0.11290481    -0.00200
C825        C  0.53030235  0.09446848  0.99531398     0.01200
C826        C  0.50428551  0.09371610  0.01572960     0.04000
C827        C  0.98912347  0.05819274  0.01879091    -0.12100
C828        C  0.49987883  0.02352100  0.00149654     0.23300
C829        C  0.52564682  0.02422227  0.98097796    -0.12600
C830        C  0.54102711  0.05944786  0.97824973     0.04700
C831        C  0.98463122  0.98577428  0.00549936     0.27100
C832        C  0.49124557  0.96030372  0.03673901    -0.13300
C833        C  0.97843821  0.92303033  0.03901406     0.05200
C834        C  0.95914373  0.91101337  0.00967556    -0.09300
C835        C  0.95229539  0.93692218  0.97861289     0.06000
C836        C  0.96502362  0.97426578  0.97665138    -0.13700
Br837      Br  0.53989911  0.97647089  0.95692077    -0.05700
Br838      Br  0.48880419  0.14128444  0.03860073    -0.00100
Br839      Br  0.48852438  0.88801444  0.08145611     0.00400
Br840      Br  0.95590111  0.00981314  0.93430858    -0.04100
Br841      Br  0.57777552  0.05853960  0.95354626     0.00500
Br842      Br  0.95355734  0.05673401  0.04647122    -0.03400
Br843      Br  0.51850294  0.97635857  0.07579812    -0.04200
Br844      Br  0.92453274  0.92246900  0.93953791    -0.00200
C845        C  0.71595954  0.40441671  0.00745419     0.01200
C846        C  0.70537470  0.43730793  0.02878949     0.04000
C847        C  0.71854316  0.47429951  0.02548368    -0.12100
C848        C  0.74212124  0.47887963  0.00076779     0.23300
C849        C  0.75272556  0.44643234  0.97943710    -0.12600
C850        C  0.73972550  0.40927527  0.98264468     0.04700
C851        C  0.75580486  0.51796196  0.99711640     0.27100
C852        C  0.74838534  0.54321419  0.96602251    -0.13300
C853        C  0.76180364  0.58000183  0.96202066     0.05200
C854        C  0.78275201  0.59161888  0.98919646    -0.09300
C855        C  0.78984739  0.56633940  0.02070050     0.06000
C856        C  0.77634735  0.52966014  0.02460796    -0.13700
Br857      Br  0.78534684  0.45319410  0.94601552    -0.05700
Br858      Br  0.67178733  0.43313712  0.06094720    -0.00100
Br859      Br  0.75036095  0.61504447  0.92040930     0.00400
Br860      Br  0.78609034  0.49499886  0.06743844    -0.04100
Br861      Br  0.75553315  0.36512210  0.95400393     0.00500
Br862      Br  0.70420181  0.51917946  0.05448332    -0.03400
Br863      Br  0.71959497  0.52721434  0.92917590    -0.04200
Br864      Br  0.81907422  0.58062818  0.05769359    -0.00200
loop_ 
_geom_bond_atom_site_label_1 
_geom_bond_atom_site_label_2 
_geom_bond_distance 
_geom_bond_site_symmetry_2 
_ccdc_geom_bond_type 
O1           Mg3   2.128   1_554  S
O1           Mg9   2.135       .  S
O1           C36   1.237       .  S
C2           O15   1.237       .  S
C2           O39   1.270       .  A
C2           H41   1.082       .  S
Mg3          O32   2.135       .  S
Mg3          O47   2.310       .  S
Mg3          O43   2.248       .  S
Mg3          O14   2.303       .  S
O4          Mg46   2.143       .  S
O4          Mg29   2.137       .  S
O4           C25   1.238       .  S
O5           C36   1.270       .  A
O5          Mg29   2.291       .  S
C6            O8   1.273       .  A
C6           O20   1.276       .  A
C6          C322   1.487       .  S
O7           C35   1.273   1_554  A
O7           Mg9   2.307       .  S
O8          Mg40   2.275       .  S
Mg9          O15   2.119       .  S
Mg9          O23   2.253       .  S
Mg9          O11   2.294       .  S
C10          O48   1.271       .  A
C10          O16   1.274   1_556  A
C10         C393   1.476       .  S
O11          C18   1.274       .  A
H12          C25   1.081       .  S
C13          O27   1.238       .  S
C13          O28   1.272       .  A
C13          H38   1.079       .  S
O14          C37   1.273       .  A
O15         Mg29   2.156       .  S
O16         Mg46   2.296       .  S
C17          O30   1.273       .  A
C17          O22   1.277       .  A
C17         C333   1.477       .  S
C18          O45   1.274       .  A
C18         C382   1.494       .  S
Mg19         O26   2.132       .  S
Mg19         O27   2.144       .  S
Mg19         O20   2.308       .  S
Mg19         O21   2.302       .  S
Mg19         O48   2.255       .  S
O21          C25   1.272   1_556  A
O22         Mg29   2.314       .  S
O23          C42   1.270       .  A
O24          C44   1.276       .  A
O24         Mg40   2.322       .  S
O26         Mg40   2.149       .  S
O26          C37   1.239       .  S
O27         Mg46   2.147   1_556  S
O28         Mg40   2.304       .  S
Mg29         O45   2.281       .  S
O30         Mg46   2.264       .  S
H31          C36   1.080       .  S
O32         Mg40   2.137       .  S
O32          C35   1.238       .  S
H33          C35   1.081       .  S
H34          C37   1.082       .  S
O39         Mg46   2.290       .  S
C42          O47   1.275   1_554  A
C42         C413   1.484       .  S
O43          C44   1.270       .  A
C44         C362   1.471       .  S
O49         Mg51   2.137   1_554  S
O49         Mg57   2.149       .  S
O49          C84   1.238       .  S
C50          O63   1.237       .  S
C50          O87   1.270       .  A
C50          H89   1.082       .  S
Mg51         O80   2.144       .  S
Mg51         O95   2.292       .  S
Mg51         O91   2.266       .  S
Mg51         O62   2.299       .  S
O52         Mg94   2.147       .  S
O52         Mg77   2.133       .  S
O52          C73   1.238       .  S
O53          C84   1.271       .  A
O53         Mg77   2.297       .  S
C54          O56   1.274       .  A
C54          O68   1.277       .  A
C54         C282   1.487       .  S
O55          C83   1.273   1_554  A
O55         Mg57   2.302       .  S
O56         Mg88   2.270       .  S
Mg57         O63   2.116       .  S
Mg57         O71   2.239       .  S
Mg57         O59   2.316       .  S
C58          O96   1.274       .  A
C58          O64   1.273   1_556  A
C58         C422   1.479       .  S
O59          C66   1.276       .  A
H60          C73   1.081       .  S
C61          O75   1.238       .  S
C61          O76   1.272       .  A
C61          H86   1.080       .  S
O62          C85   1.271       .  A
O63         Mg77   2.140       .  S
O64         Mg94   2.284       .  S
C65          O78   1.273       .  A
C65          O70   1.277       .  A
C65         C293   1.477       .  S
C66          O93   1.275       .  A
C66         C253   1.482       .  S
Mg67         O74   2.137       .  S
Mg67         O75   2.154       .  S
Mg67         O68   2.312       .  S
Mg67         O69   2.298       .  S
Mg67         O96   2.277       .  S
O69          C73   1.272   1_556  A
O70         Mg77   2.315       .  S
O71          C90   1.269       .  A
O72          C92   1.279       .  A
O72         Mg88   2.339       .  S
O74         Mg88   2.148       .  S
O74          C85   1.237       .  S
O75         Mg94   2.147   1_556  S
O76         Mg88   2.304       .  S
Mg77         O93   2.279       .  S
O78         Mg94   2.270       .  S
H79          C84   1.080       .  S
O80         Mg88   2.135       .  S
O80          C83   1.239       .  S
H81          C83   1.081       .  S
H82          C85   1.082       .  S
O87         Mg94   2.290       .  S
C90          O95   1.274   1_554  A
C90         C402   1.474       .  S
O91          C92   1.272       .  A
C92         C233   1.484       .  S
O97         Mg99   2.135       .  S
O97        Mg105   2.156       .  S
O97         C132   1.238       .  S
C98         O111   1.237       .  S
C98         O135   1.270       .  A
C98         H137   1.082       .  S
Mg99        O128   2.148       .  S
Mg99        O143   2.295       .  S
Mg99        O139   2.271       .  S
Mg99        O110   2.299       .  S
O100       Mg142   2.147       .  S
O100       Mg125   2.136       .  S
O100        C121   1.238       .  S
O101        C132   1.271       .  A
O101       Mg125   2.295       .  S
C102        O104   1.273       .  A
C102        O116   1.275       .  A
C102        C353   1.478       .  S
O103        C131   1.271       .  A
O103       Mg105   2.295       .  S
O104       Mg136   2.273       .  S
Mg105       O111   2.120       .  S
Mg105       O119   2.248       .  S
Mg105       O107   2.291       .  S
C106        O144   1.271       .  A
C106        O112   1.275       .  A
C106        C222   1.479       .  S
O107        C114   1.274       .  A
H108        C121   1.081       .  S
C109        O123   1.239       .  S
C109        O124   1.273       .  A
C109        H134   1.080       .  S
O110        C133   1.271       .  A
O111       Mg125   2.149       .  S
O112       Mg142   2.307       .  S
C113        O126   1.274       .  A
C113        O118   1.277       .  A
C113        C373   1.484       .  S
C114        O141   1.275       .  A
C114        C342   1.485       .  S
Mg115       O122   2.131       .  S
Mg115       O123   2.141       .  S
Mg115       O116   2.307       .  S
Mg115       O117   2.302       .  S
Mg115       O144   2.259       .  S
O117        C121   1.272       .  A
O118       Mg125   2.317       .  S
O119        C138   1.270       .  A
O120        C140   1.277       .  A
O120       Mg136   2.319       .  S
O122       Mg136   2.141       .  S
O122        C133   1.237       .  S
O123       Mg142   2.144       .  S
O124       Mg136   2.305       .  S
Mg125       O141   2.280       .  S
O126       Mg142   2.264       .  S
H127        C132   1.080       .  S
O128       Mg136   2.135       .  S
O128        C131   1.238       .  S
H129        C131   1.081       .  S
H130        C133   1.082       .  S
O135       Mg142   2.291       .  S
C138        O143   1.275       .  A
C138        C193   1.481       .  S
O139        C140   1.273       .  A
C140        C313   1.477       .  S
O145       Mg147   2.130       .  S
O145       Mg153   2.150       .  S
O145        C180   1.238       .  S
C146        O159   1.237       .  S
C146        O183   1.271       .  A
C146        H185   1.082       .  S
Mg147       O176   2.147       .  S
Mg147       O191   2.284       .  S
Mg147       O187   2.245       .  S
Mg147       O158   2.292       .  S
O148       Mg190   2.135       .  S
O148       Mg173   2.131       .  S
O148        C169   1.239       .  S
O149        C180   1.271       .  A
O149       Mg173   2.299       .  S
C150        O152   1.275       .  A
C150        O164   1.277       .  A
C150        C242   1.493       .  S
O151        C179   1.272       .  A
O151       Mg153   2.298       .  S
O152       Mg184   2.283       .  S
Mg153       O159   2.135       .  S
Mg153       O167   2.276       .  S
Mg153       O155   2.294       .  S
C154        O192   1.272       .  A
C154        O160   1.272       .  A
C154        C202   1.473       .  S
O155        C162   1.275       .  A
H156        C169   1.081       .  S
C157        O171   1.238       .  S
C157        O172   1.272       .  A
C157        H182   1.080       .  S
O158        C181   1.270       .  A
O159       Mg173   2.151       .  S
O160       Mg190   2.286       .  S
C161        O174   1.272       .  A
C161        O166   1.280       .  A
C161        C262   1.489       .  S
C162        O189   1.274       .  A
C162        C302   1.481       .  S
Mg163       O170   2.125       .  S
Mg163       O171   2.148       .  S
Mg163       O164   2.312       .  S
Mg163       O165   2.302       .  S
Mg163       O192   2.262       .  S
O165        C169   1.273       .  A
O166       Mg173   2.344       .  S
O167        C186   1.273       .  A
O168        C188   1.279       .  A
O168       Mg184   2.330       .  S
O170       Mg184   2.149       .  S
O170        C181   1.237       .  S
O171       Mg190   2.144       .  S
O172       Mg184   2.300       .  S
Mg173       O189   2.264       .  S
O174       Mg190   2.263       .  S
H175        C180   1.080       .  S
O176       Mg184   2.135       .  S
O176        C179   1.239       .  S
H177        C179   1.081       .  S
H178        C181   1.082       .  S
O183       Mg190   2.296       .  S
C186        O191   1.272       .  A
C186        C213   1.481       .  S
O187        C188   1.270       .  A
C188        C273   1.477       .  S
C193        C194   1.416       .  A
C193        C198   1.417       .  A
C194        C195   1.404       .  A
C194       Br206   1.934       .  S
C195        C196   1.406       .  A
C195       Br210   1.932   1_545  S
C196        C631   1.478   1_545  S
C196        C197   1.406       .  A
C197        C198   1.407       .  A
C197       Br637   1.931       .  S
C198       Br209   1.932       .  S
C199        C628   1.478   1_465  S
C199        C200   1.407       .  A
C199        C636   1.408   1_455  A
C200        C201   1.404       .  A
C200       Br211   1.931   1_565  S
C201        C202   1.412       .  A
C201       Br207   1.932       .  S
C202        C203   1.411       .  A
C203        C636   1.406   1_455  A
C203       Br644   1.931   1_455  S
C204        C631   1.408       .  A
C204        C635   1.406       .  A
C204       Br208   1.930       .  S
Br205       C629   1.931   1_455  S
Br212       C635   1.931       .  S
C213        C214   1.412       .  A
C213        C218   1.415       .  A
C214        C215   1.409       .  A
C214       Br226   1.930       .  S
C215        C216   1.409       .  A
C215       Br230   1.930       .  S
C216        C219   1.484       .  S
C216        C217   1.407       .  A
C217        C218   1.406       .  A
C217       Br225   1.931       .  S
C218       Br229   1.932       .  S
C219        C220   1.409       .  A
C219        C224   1.408       .  A
C220        C221   1.407       .  A
C220       Br231   1.930       .  S
C221        C222   1.412       .  A
C221       Br227   1.931       .  S
C222        C223   1.414       .  A
C223        C224   1.407       .  A
C223       Br232   1.933       .  S
C224       Br228   1.930       .  S
C233        C234   1.413       .  A
C233        C238   1.412       .  A
C234        C235   1.410       .  A
C234       Br246   1.929       .  S
C235        C236   1.409       .  A
C235       Br682   1.929       .  S
C236        C671   1.490       .  S
C236        C237   1.410       .  A
C237        C238   1.410       .  A
C237       Br245   1.930       .  S
C238       Br249   1.930       .  S
C239        C668   1.490   1_455  S
C239        C240   1.406       .  A
C239        C244   1.409       .  A
C240        C241   1.409       .  A
C240       Br683   1.931   1_455  S
C241        C242   1.419       .  A
C241       Br247   1.934       .  S
C242        C243   1.418       .  A
C243        C244   1.412       .  A
C243       Br252   1.932       .  S
C244       Br248   1.930       .  S
Br250       C667   1.929   1_455  S
Br251       C672   1.931       .  S
C253        C254   1.410       .  A
C253        C258   1.412       .  A
C254        C255   1.412       .  A
C254       Br266   1.929       .  S
C255        C256   1.412       .  A
C255       Br702   1.928       .  S
C256        C691   1.493       .  S
C256        C257   1.410       .  A
C257        C258   1.409       .  A
C257       Br265   1.930       .  S
C258       Br269   1.931       .  S
C259        C688   1.493   1_455  S
C259        C260   1.411       .  A
C259        C264   1.408   1_455  A
C260        C261   1.414       .  A
C260       Br271   1.929       .  S
C261        C262   1.413       .  A
C261       Br267   1.929       .  S
C262        C263   1.415       .  A
C263        C264   1.408   1_455  A
C263       Br272   1.932       .  S
C264       Br700   1.931       .  S
Br268       C696   1.931       .  S
Br270       C687   1.928       .  S
C273        C274   1.412       .  A
C273        C278   1.411       .  A
C274        C275   1.407       .  A
C274       Br286   1.929       .  S
C275        C276   1.409       .  A
C275       Br290   1.930       .  S
C276        C279   1.484       .  S
C276        C277   1.409       .  A
C277        C278   1.407       .  A
C277       Br285   1.930       .  S
C278       Br289   1.930       .  S
C279        C280   1.406       .  A
C279        C284   1.409       .  A
C280        C281   1.406       .  A
C280       Br291   1.933       .  S
C281        C282   1.417       .  A
C281       Br287   1.932       .  S
C282        C283   1.416       .  A
C283        C284   1.410       .  A
C283       Br292   1.932       .  S
C284       Br288   1.930       .  S
C293        C294   1.411       .  A
C293        C298   1.412       .  A
C294        C295   1.407       .  A
C294       Br306   1.928       .  S
C295        C296   1.408       .  A
C295       Br310   1.931       .  S
C296        C299   1.482       .  S
C296        C297   1.408       .  A
C297        C298   1.407       .  A
C297       Br305   1.929       .  S
C298       Br309   1.931       .  S
C299        C300   1.408       .  A
C299        C304   1.406       .  A
C300        C301   1.407       .  A
C300       Br311   1.930       .  S
C301        C302   1.413       .  A
C301       Br307   1.932       .  S
C302        C303   1.417       .  A
C303        C304   1.407       .  A
C303       Br312   1.933       .  S
C304       Br308   1.931       .  S
C313        C314   1.409       .  A
C313        C318   1.410       .  A
C314        C315   1.409       .  A
C314       Br326   1.928       .  S
C315        C316   1.410       .  A
C315       Br762   1.929       .  S
C316        C751   1.487       .  S
C316        C317   1.409       .  A
C317        C318   1.408       .  A
C317       Br325   1.929       .  S
C318       Br329   1.930       .  S
C319        C748   1.487   1_455  S
C319        C320   1.407       .  A
C319        C324   1.409       .  A
C320        C321   1.408       .  A
C320       Br763   1.930   1_455  S
C321        C322   1.416       .  A
C321       Br327   1.933       .  S
C322        C323   1.415       .  A
C323        C324   1.410       .  A
C323       Br332   1.931       .  S
C324       Br328   1.931       .  S
Br330       C747   1.929       .  S
Br331       C752   1.930       .  S
C333        C334   1.412       .  A
C333        C338   1.411       .  A
C334        C335   1.407       .  A
C334       Br346   1.931       .  S
C335        C336   1.409       .  A
C335       Br350   1.930       .  S
C336        C771   1.486   1_455  S
C336        C337   1.409       .  A
C337        C338   1.408       .  A
C337       Br345   1.930   1_455  S
C338       Br349   1.930       .  S
C339        C768   1.486       .  S
C339        C340   1.407       .  A
C339        C344   1.409       .  A
C340        C341   1.408       .  A
C340       Br783   1.931       .  S
C341        C342   1.417       .  A
C341       Br347   1.934       .  S
C342        C343   1.414       .  A
C343        C344   1.409       .  A
C343       Br352   1.931       .  S
C344       Br348   1.931       .  S
Br351       C772   1.931   1_455  S
C353        C354   1.410       .  A
C353        C358   1.412       .  A
C354        C355   1.409       .  A
C354       Br366   1.930       .  S
C355        C356   1.411       .  A
C355       Br370   1.930       .  S
C356        C359   1.485       .  S
C356        C357   1.408       .  A
C357        C358   1.407       .  A
C357       Br365   1.931       .  S
C358       Br369   1.930       .  S
C359        C360   1.409       .  A
C359        C364   1.411       .  A
C360        C361   1.406       .  A
C360       Br371   1.930       .  S
C361        C362   1.409       .  A
C361       Br367   1.930       .  S
C362        C363   1.407       .  A
C363        C364   1.408       .  A
C363       Br372   1.928       .  S
C364       Br368   1.929       .  S
C373        C374   1.414       .  A
C373        C378   1.415       .  A
C374        C375   1.408       .  A
C374       Br386   1.932       .  S
C375        C376   1.408       .  A
C375       Br390   1.930       .  S
C376        C379   1.488       .  S
C376        C377   1.409       .  A
C377        C378   1.409       .  A
C377       Br385   1.931       .  S
C378       Br389   1.932       .  S
C379        C380   1.408       .  A
C379        C384   1.405       .  A
C380        C381   1.410       .  A
C380       Br391   1.931       .  S
C381        C382   1.419       .  A
C381       Br387   1.933       .  S
C382        C383   1.422       .  A
C383        C384   1.409       .  A
C383       Br392   1.935       .  S
C384       Br388   1.932       .  S
C393        C394   1.414   1_556  A
C393        C398   1.413       .  A
C394        C827   1.407   1_455  A
C394       Br406   1.932   1_455  S
C395        C826   1.407       .  A
C395        C828   1.407       .  A
C395       Br410   1.930       .  S
C396        C831   1.477   1_545  S
C396        C397   1.406   1_654  A
C396        C827   1.407       .  A
C397        C398   1.403       .  A
C397       Br405   1.932   1_545  S
C398       Br409   1.933       .  S
C399        C828   1.477   1_565  S
C399        C404   1.406   1_554  A
C399        C832   1.407       .  A
C400        C831   1.407       .  A
C400        C833   1.405       .  A
C400       Br411   1.931   1_655  S
C401        C402   1.413       .  A
C401        C832   1.405       .  A
C401       Br839   1.933       .  S
C402        C403   1.415   1_554  A
C403        C404   1.405       .  A
C403       Br412   1.933       .  S
C404       Br408   1.931   1_565  S
Br407       C833   1.933       .  S
C413        C414   1.419       .  A
C413        C418   1.416   1_554  A
C414        C415   1.406       .  A
C414       Br426   1.935       .  S
C415        C416   1.406       .  A
C415       Br430   1.932       .  S
C416        C419   1.481   1_554  S
C416        C417   1.407   1_554  A
C417        C418   1.407       .  A
C417       Br425   1.931       .  S
C418       Br429   1.932       .  S
C419        C420   1.408       .  A
C419        C424   1.407   1_556  A
C420        C421   1.407       .  A
C420       Br431   1.930       .  S
C421        C422   1.412       .  A
C421       Br427   1.930       .  S
C422        C423   1.415   1_556  A
C423        C424   1.406       .  A
C423       Br432   1.933       .  S
C424       Br428   1.931       .  S
O433       Mg435   2.128   1_554  S
O433       Mg441   2.135       .  S
O433        C468   1.237       .  S
C434        O447   1.237       .  S
C434        O471   1.270       .  A
C434        H473   1.082       .  S
Mg435       O464   2.135       .  S
Mg435       O479   2.310       .  S
Mg435       O475   2.248       .  S
Mg435       O446   2.303       .  S
O436       Mg478   2.143       .  S
O436       Mg461   2.137       .  S
O436        C457   1.238       .  S
O437        C468   1.270       .  A
O437       Mg461   2.291       .  S
C438        O440   1.273       .  A
C438        O452   1.276       .  A
C438        C754   1.487       .  S
O439        C467   1.273   1_554  A
O439       Mg441   2.307       .  S
O440       Mg472   2.275       .  S
Mg441       O447   2.119       .  S
Mg441       O455   2.253       .  S
Mg441       O443   2.294       .  S
C442        O480   1.271       .  A
C442        O448   1.274   1_556  A
C442        C825   1.476       .  S
O443        C450   1.274       .  A
H444        C457   1.081       .  S
C445        O459   1.238       .  S
C445        O460   1.272       .  A
C445        H470   1.079       .  S
O446        C469   1.273       .  A
O447       Mg461   2.156       .  S
O448       Mg478   2.296       .  S
C449        O462   1.273       .  A
C449        O454   1.277       .  A
C449        C765   1.477       .  S
C450        O477   1.274       .  A
C450        C814   1.494       .  S
Mg451       O458   2.132       .  S
Mg451       O459   2.144       .  S
Mg451       O452   2.308       .  S
Mg451       O453   2.302       .  S
Mg451       O480   2.255       .  S
O453        C457   1.272   1_556  A
O454       Mg461   2.314       .  S
O455        C474   1.270       .  A
O456        C476   1.276       .  A
O456       Mg472   2.322       .  S
O458       Mg472   2.149       .  S
O458        C469   1.239       .  S
O459       Mg478   2.147   1_556  S
O460       Mg472   2.304       .  S
Mg461       O477   2.281       .  S
O462       Mg478   2.264       .  S
H463        C468   1.080       .  S
O464       Mg472   2.137       .  S
O464        C467   1.238       .  S
H465        C467   1.081       .  S
H466        C469   1.082       .  S
O471       Mg478   2.290       .  S
C474        O479   1.275   1_554  A
C474        C845   1.484       .  S
O475        C476   1.270       .  A
C476        C794   1.471       .  S
O481       Mg483   2.137   1_554  S
O481       Mg489   2.149       .  S
O481        C516   1.238       .  S
C482        O495   1.237       .  S
C482        O519   1.270       .  A
C482        H521   1.082       .  S
Mg483       O512   2.144       .  S
Mg483       O527   2.292       .  S
Mg483       O523   2.266       .  S
Mg483       O494   2.299       .  S
O484       Mg526   2.147       .  S
O484       Mg509   2.133       .  S
O484        C505   1.238       .  S
O485        C516   1.271       .  A
O485       Mg509   2.297       .  S
C486        O488   1.274       .  A
C486        O500   1.277       .  A
C486        C714   1.487       .  S
O487        C515   1.273   1_554  A
O487       Mg489   2.302       .  S
O488       Mg520   2.270       .  S
Mg489       O495   2.116       .  S
Mg489       O503   2.240       .  S
Mg489       O491   2.316       .  S
C490        O528   1.274       .  A
C490        O496   1.273   1_556  A
C490        C854   1.479       .  S
O491        C498   1.276       .  A
H492        C505   1.081       .  S
C493        O507   1.238       .  S
C493        O508   1.272       .  A
C493        H518   1.080       .  S
O494        C517   1.271       .  A
O495       Mg509   2.140       .  S
O496       Mg526   2.284       .  S
C497        O510   1.273       .  A
C497        O502   1.277       .  A
C497        C725   1.477       .  S
C498        O525   1.275       .  A
C498        C685   1.482       .  S
Mg499       O506   2.137       .  S
Mg499       O507   2.154       .  S
Mg499       O500   2.312       .  S
Mg499       O501   2.298       .  S
Mg499       O528   2.277       .  S
O501        C505   1.272   1_556  A
O502       Mg509   2.315       .  S
O503        C522   1.269       .  A
O504        C524   1.279       .  A
O504       Mg520   2.339       .  S
O506       Mg520   2.148       .  S
O506        C517   1.237       .  S
O507       Mg526   2.147   1_556  S
O508       Mg520   2.304       .  S
Mg509       O525   2.279       .  S
O510       Mg526   2.270       .  S
H511        C516   1.080       .  S
O512       Mg520   2.135       .  S
O512        C515   1.239       .  S
H513        C515   1.081       .  S
H514        C517   1.082       .  S
O519       Mg526   2.290       .  S
C522        O527   1.274   1_554  A
C522        C834   1.474       .  S
O523        C524   1.272       .  A
C524        C665   1.484       .  S
O529       Mg531   2.135       .  S
O529       Mg537   2.156       .  S
O529        C564   1.238       .  S
C530        O543   1.237       .  S
C530        O567   1.270       .  A
C530        H569   1.082       .  S
Mg531       O560   2.148       .  S
Mg531       O575   2.295       .  S
Mg531       O571   2.271       .  S
Mg531       O542   2.299       .  S
O532       Mg574   2.147       .  S
O532       Mg557   2.136       .  S
O532        C553   1.238       .  S
O533        C564   1.271       .  A
O533       Mg557   2.295       .  S
C534        O536   1.273       .  A
C534        O548   1.275       .  A
C534        C785   1.478       .  S
O535        C563   1.271       .  A
O535       Mg537   2.295       .  S
O536       Mg568   2.273       .  S
Mg537       O543   2.120       .  S
Mg537       O551   2.248       .  S
Mg537       O539   2.291       .  S
C538        O576   1.271       .  A
C538        O544   1.275       .  A
C538        C654   1.479       .  S
O539        C546   1.274       .  A
H540        C553   1.081       .  S
C541        O555   1.239       .  S
C541        O556   1.273       .  A
C541        H566   1.080       .  S
O542        C565   1.271       .  A
O543       Mg557   2.149       .  S
O544       Mg574   2.307       .  S
C545        O558   1.274       .  A
C545        O550   1.277       .  A
C545        C805   1.484       .  S
C546        O573   1.275       .  A
C546        C774   1.485       .  S
Mg547       O554   2.131       .  S
Mg547       O555   2.141       .  S
Mg547       O548   2.307       .  S
Mg547       O549   2.302       .  S
Mg547       O576   2.259       .  S
O549        C553   1.272       .  A
O550       Mg557   2.317       .  S
O551        C570   1.270       .  A
O552        C572   1.277       .  A
O552       Mg568   2.319       .  S
O554       Mg568   2.141       .  S
O554        C565   1.237       .  S
O555       Mg574   2.144       .  S
O556       Mg568   2.305       .  S
Mg557       O573   2.280       .  S
O558       Mg574   2.264       .  S
H559        C564   1.080       .  S
O560       Mg568   2.135       .  S
O560        C563   1.238       .  S
H561        C563   1.081       .  S
H562        C565   1.082       .  S
O567       Mg574   2.291       .  S
C570        O575   1.275       .  A
C570        C625   1.481       .  S
O571        C572   1.273       .  A
C572        C745   1.477       .  S
O577       Mg579   2.130       .  S
O577       Mg585   2.150       .  S
O577        C612   1.238       .  S
C578        O591   1.237       .  S
C578        O615   1.271       .  A
C578        H617   1.082       .  S
Mg579       O608   2.147       .  S
Mg579       O623   2.284       .  S
Mg579       O619   2.245       .  S
Mg579       O590   2.292       .  S
O580       Mg622   2.135       .  S
O580       Mg605   2.131       .  S
O580        C601   1.239       .  S
O581        C612   1.271       .  A
O581       Mg605   2.299       .  S
C582        O584   1.275       .  A
C582        O596   1.277       .  A
C582        C674   1.493       .  S
O583        C611   1.272       .  A
O583       Mg585   2.298       .  S
O584       Mg616   2.283       .  S
Mg585       O591   2.135       .  S
Mg585       O599   2.276       .  S
Mg585       O587   2.294       .  S
C586        O624   1.272       .  A
C586        O592   1.272       .  A
C586        C634   1.473       .  S
O587        C594   1.275       .  A
H588        C601   1.081       .  S
C589        O603   1.238       .  S
C589        O604   1.272       .  A
C589        H614   1.080       .  S
O590        C613   1.270       .  A
O591       Mg605   2.151       .  S
O592       Mg622   2.286       .  S
C593        O606   1.272       .  A
C593        O598   1.280       .  A
C593        C694   1.489       .  S
C594        O621   1.274       .  A
C594        C734   1.481       .  S
Mg595       O602   2.125       .  S
Mg595       O603   2.148       .  S
Mg595       O596   2.312       .  S
Mg595       O597   2.302       .  S
Mg595       O624   2.262       .  S
O597        C601   1.273       .  A
O598       Mg605   2.344       .  S
O599        C618   1.273       .  A
O600        C620   1.279       .  A
O600       Mg616   2.330       .  S
O602       Mg616   2.149       .  S
O602        C613   1.237       .  S
O603       Mg622   2.144       .  S
O604       Mg616   2.300       .  S
Mg605       O621   2.264       .  S
O606       Mg622   2.263       .  S
H607        C612   1.080       .  S
O608       Mg616   2.135       .  S
O608        C611   1.239       .  S
H609        C611   1.081       .  S
H610        C613   1.082       .  S
O615       Mg622   2.296       .  S
C618        O623   1.272       .  A
C618        C645   1.481       .  S
O619        C620   1.270       .  A
C620        C705   1.477       .  S
C625        C626   1.416       .  A
C625        C630   1.417       .  A
C626        C627   1.404       .  A
C626       Br638   1.934       .  S
C627        C628   1.406       .  A
C627       Br642   1.932   1_545  S
C628        C629   1.406       .  A
C629        C630   1.407       .  A
C630       Br641   1.932       .  S
C631        C632   1.407       .  A
C632        C633   1.404       .  A
C632       Br643   1.931   1_565  S
C633        C634   1.412       .  A
C633       Br639   1.932       .  S
C634        C635   1.411       .  A
C636       Br640   1.930       .  S
C645        C646   1.412       .  A
C645        C650   1.415       .  A
C646        C647   1.409       .  A
C646       Br658   1.930       .  S
C647        C648   1.409       .  A
C647       Br662   1.930       .  S
C648        C651   1.484       .  S
C648        C649   1.407       .  A
C649        C650   1.406       .  A
C649       Br657   1.931       .  S
C650       Br661   1.932       .  S
C651        C652   1.409       .  A
C651        C656   1.408       .  A
C652        C653   1.407       .  A
C652       Br663   1.930       .  S
C653        C654   1.412       .  A
C653       Br659   1.931       .  S
C654        C655   1.414       .  A
C655        C656   1.407       .  A
C655       Br664   1.933       .  S
C656       Br660   1.930       .  S
C665        C666   1.413       .  A
C665        C670   1.412       .  A
C666        C667   1.410       .  A
C666       Br678   1.929       .  S
C667        C668   1.409       .  A
C668        C669   1.410       .  A
C669        C670   1.410       .  A
C669       Br677   1.930       .  S
C670       Br681   1.930       .  S
C671        C672   1.406       .  A
C671        C676   1.409       .  A
C672        C673   1.409       .  A
C673        C674   1.419       .  A
C673       Br679   1.934       .  S
C674        C675   1.418       .  A
C675        C676   1.412       .  A
C675       Br684   1.932       .  S
C676       Br680   1.930       .  S
C685        C686   1.410       .  A
C685        C690   1.412       .  A
C686        C687   1.412       .  A
C686       Br698   1.929       .  S
C687        C688   1.412       .  A
C688        C689   1.410       .  A
C689        C690   1.409       .  A
C689       Br697   1.930   1_655  S
C690       Br701   1.931       .  S
C691        C692   1.411       .  A
C691        C696   1.408       .  A
C692        C693   1.414       .  A
C692       Br703   1.929       .  S
C693        C694   1.413       .  A
C693       Br699   1.929       .  S
C694        C695   1.415       .  A
C695        C696   1.408       .  A
C695       Br704   1.932       .  S
C705        C706   1.412       .  A
C705        C710   1.411       .  A
C706        C707   1.407       .  A
C706       Br718   1.929       .  S
C707        C708   1.409       .  A
C707       Br722   1.930       .  S
C708        C711   1.484       .  S
C708        C709   1.409       .  A
C709        C710   1.407       .  A
C709       Br717   1.930       .  S
C710       Br721   1.930       .  S
C711        C712   1.406       .  A
C711        C716   1.409       .  A
C712        C713   1.406       .  A
C712       Br723   1.933       .  S
C713        C714   1.417       .  A
C713       Br719   1.932       .  S
C714        C715   1.416       .  A
C715        C716   1.410       .  A
C715       Br724   1.932       .  S
C716       Br720   1.930       .  S
C725        C726   1.411       .  A
C725        C730   1.412       .  A
C726        C727   1.407       .  A
C726       Br738   1.928       .  S
C727        C728   1.408       .  A
C727       Br742   1.931       .  S
C728        C731   1.482       .  S
C728        C729   1.408       .  A
C729        C730   1.407       .  A
C729       Br737   1.929       .  S
C730       Br741   1.931       .  S
C731        C732   1.408       .  A
C731        C736   1.406       .  A
C732        C733   1.407       .  A
C732       Br743   1.930       .  S
C733        C734   1.413       .  A
C733       Br739   1.932       .  S
C734        C735   1.417       .  A
C735        C736   1.407       .  A
C735       Br744   1.933       .  S
C736       Br740   1.931       .  S
C745        C746   1.409       .  A
C745        C750   1.410       .  A
C746        C747   1.409       .  A
C746       Br758   1.928       .  S
C747        C748   1.410       .  A
C748        C749   1.409       .  A
C749        C750   1.408       .  A
C749       Br757   1.929       .  S
C750       Br761   1.930       .  S
C751        C752   1.407       .  A
C751        C756   1.409       .  A
C752        C753   1.408       .  A
C753        C754   1.416       .  A
C753       Br759   1.933       .  S
C754        C755   1.415       .  A
C755        C756   1.410       .  A
C755       Br764   1.931       .  S
C756       Br760   1.931       .  S
C765        C766   1.412       .  A
C765        C770   1.411       .  A
C766        C767   1.407       .  A
C766       Br778   1.931       .  S
C767        C768   1.409       .  A
C767       Br782   1.930       .  S
C768        C769   1.409       .  A
C769        C770   1.408       .  A
C769       Br777   1.930       .  S
C770       Br781   1.930       .  S
C771        C772   1.407       .  A
C771        C776   1.409       .  A
C772        C773   1.408       .  A
C773        C774   1.417       .  A
C773       Br779   1.934       .  S
C774        C775   1.414       .  A
C775        C776   1.409       .  A
C775       Br784   1.931       .  S
C776       Br780   1.931       .  S
C785        C786   1.410       .  A
C785        C790   1.412       .  A
C786        C787   1.409       .  A
C786       Br798   1.930       .  S
C787        C788   1.411       .  A
C787       Br802   1.930       .  S
C788        C791   1.485       .  S
C788        C789   1.408       .  A
C789        C790   1.407       .  A
C789       Br797   1.931       .  S
C790       Br801   1.930       .  S
C791        C792   1.409       .  A
C791        C796   1.411       .  A
C792        C793   1.406       .  A
C792       Br803   1.930       .  S
C793        C794   1.409       .  A
C793       Br799   1.930       .  S
C794        C795   1.407       .  A
C795        C796   1.408       .  A
C795       Br804   1.928       .  S
C796       Br800   1.929       .  S
C805        C806   1.414       .  A
C805        C810   1.415       .  A
C806        C807   1.408       .  A
C806       Br818   1.932       .  S
C807        C808   1.408       .  A
C807       Br822   1.930       .  S
C808        C811   1.488       .  S
C808        C809   1.409       .  A
C809        C810   1.409       .  A
C809       Br817   1.931       .  S
C810       Br821   1.932       .  S
C811        C812   1.408       .  A
C811        C816   1.405       .  A
C812        C813   1.410       .  A
C812       Br823   1.931       .  S
C813        C814   1.419       .  A
C813       Br819   1.933       .  S
C814        C815   1.422       .  A
C815        C816   1.409       .  A
C815       Br824   1.935       .  S
C816       Br820   1.932       .  S
C825        C826   1.414   1_556  A
C825        C830   1.413       .  A
C826       Br838   1.932       .  S
C827       Br842   1.930       .  S
C828        C829   1.406   1_554  A
C829        C830   1.403       .  A
C829       Br837   1.932   1_545  S
C830       Br841   1.933       .  S
C831        C836   1.406   1_554  A
C832       Br843   1.931       .  S
C833        C834   1.413       .  A
C834        C835   1.415   1_554  A
C835        C836   1.405       .  A
C835       Br844   1.933       .  S
C836       Br840   1.931   1_565  S
C845        C846   1.419       .  A
C845        C850   1.416   1_554  A
C846        C847   1.406       .  A
C846       Br858   1.935       .  S
C847        C848   1.406       .  A
C847       Br862   1.932       .  S
C848        C851   1.481   1_554  S
C848        C849   1.407   1_554  A
C849        C850   1.407       .  A
C849       Br857   1.931       .  S
C850       Br861   1.932       .  S
C851        C852   1.408       .  A
C851        C856   1.407   1_556  A
C852        C853   1.407       .  A
C852       Br863   1.930       .  S
C853        C854   1.412       .  A
C853       Br859   1.930       .  S
C854        C855   1.415   1_556  A
C855        C856   1.406       .  A
C855       Br864   1.933       .  S
C856       Br860   1.931       .  S
