geometry optimzed in LAMMPS
_audit_creation_date              2020-11-30 
_audit_creation_method            'lammps2cif' 
_symmetry_space_group_name_H-M    'P1' 
_symmetry_Int_Tables_number       1 
_symmetry_cell_setting            triclinic 
loop_ 
_symmetry_equiv_pos_as_xyz 
  x,y,z 
_cell_length_a                    28.2222362 
_cell_length_b                    38.89957578914403 
_cell_length_c                    38.91357113768971 
_cell_angle_alpha                 90.32943973289863 
_cell_angle_beta                  89.40646478008888 
_cell_angle_gamma                 89.77406823289658 
loop_ 
_atom_site_label 
_atom_site_type_symbol 
_atom_site_fract_x 
_atom_site_fract_y 
_atom_site_fract_z 
_atom_site_charge 
O1          O  0.83381556  0.61794748  0.53602315    -0.56700
C2          C  0.98583170  0.54278332  0.50483916     0.76000
O3          O  0.83369916  0.52812943  0.51801785    -0.57800
C4          C  0.85974719  0.63102610  0.55894955     0.75900
C5          C  0.87191659  0.60144278  0.44128584     0.78300
Cd6        Cd  0.89274283  0.57640035  0.51126677     1.37500
O7          O  0.94855865  0.53033568  0.49218572    -0.56700
O8          O  0.85232721  0.57521556  0.45430624    -0.55500
C9          C  0.85247309  0.51697550  0.54530465     0.78300
O10         O  0.90191306  0.61647724  0.46017227    -0.57800
O11         O  0.98164033  0.57239274  0.51861351    -0.56300
O12         O  0.90198118  0.61979692  0.55977382    -0.56300
O13         O  0.88587731  0.53471953  0.55734655    -0.55500
C14         C  0.82083971  0.30689946  0.71007059    -0.01300
C15         C  0.16120708  0.74061805  0.29528943    -0.01300
O16         O  0.10687488  0.43483478  0.46181012    -0.56700
C17         C  0.03125964  0.52336413  0.50377767     0.76000
O18         O  0.17535174  0.47929871  0.55057506    -0.57800
C19         C  0.14965669  0.43063702  0.45215293     0.75900
C20         C  0.16905464  0.54333045  0.46677157     0.78300
Cd21       Cd  0.12274137  0.48664861  0.49983133     1.37500
O22         O  0.06834976  0.53489316  0.51750052    -0.56700
O23         O  0.14817220  0.51974212  0.45038131    -0.55500
C24         C  0.14943451  0.45804363  0.56644646     0.78300
O25         O  0.17114332  0.54002000  0.49912246    -0.57800
O26         O  0.03522550  0.49407033  0.48943124    -0.56300
O27         O  0.17905409  0.45173095  0.46451597    -0.56300
O28         O  0.11060139  0.45059434  0.55225727    -0.55500
C29         C  0.82385443  0.74013899  0.20847837    -0.01300
O30         O  0.81372345  0.44933315  0.03756812    -0.56700
C31         C  0.95593005  0.52122501  0.99427578     0.76000
O32         O  0.88215458  0.44289834  0.95136312    -0.57800
C33         C  0.84544739  0.43191760  0.05224426     0.75900
C34         C  0.81154943  0.54281066  0.02849147     0.78300
Cd35       Cd  0.86451334  0.48432859  0.99881353     1.37500
O36         O  0.92204329  0.52673150  0.97389603    -0.56700
O37         O  0.79346829  0.51320265  0.02638736    -0.55500
C38         C  0.84658125  0.44814203  0.93266545     0.78300
O39         O  0.85141748  0.54624912  0.01396548    -0.57800
O40         O  0.94918315  0.49739921  0.01606792    -0.56300
O41         O  0.88772134  0.43870414  0.04304779    -0.56300
O42         O  0.81845138  0.47152222  0.94323910    -0.55500
C43         C  0.17307125  0.32847770  0.80281034    -0.01300
O44         O  0.07004108  0.63144003  0.94952968    -0.56700
C45         C  0.00031591  0.54203207  0.99293416     0.76000
O46         O  0.12618132  0.55071049  0.94371128    -0.57800
C47         C  0.11256465  0.64141555  0.94557886     0.75900
C48         C  0.09970823  0.61618356  0.05837469     0.78300
Cd49       Cd  0.08903331  0.58319445  0.99084419     1.37500
O50         O  0.03513858  0.53584736  0.01218091    -0.56700
O51         O  0.13344045  0.59922679  0.04469026    -0.55500
C52         C  0.15021841  0.53036609  0.96188307     0.78300
O53         O  0.06179409  0.61752506  0.04136489    -0.57800
O54         O  0.00549208  0.56739483  0.97283708    -0.56300
O55         O  0.14327706  0.62501438  0.96241496    -0.56300
O56         O  0.14725637  0.53468027  0.99414995    -0.55500
C57         C  0.65499723  0.81145044  0.70337464    -0.01300
O58         O  0.58600038  0.12347704  0.54464814    -0.56700
C59         C  0.50744048  0.03594651  0.50138688     0.76000
O60         O  0.59867425  0.11333803  0.45659596    -0.57800
C61         C  0.62818615  0.12635017  0.55548364     0.75900
C62         C  0.64418659  0.01104474  0.53457447     0.78300
Cd63       Cd  0.60029650  0.07149984  0.50639256     1.37500
O64         O  0.54232183  0.02963417  0.48179759    -0.56700
O65         O  0.64223955  0.01551506  0.50245296    -0.55500
C66         C  0.63421546  0.10063805  0.44081770     0.78300
O67         O  0.62882486  0.03534773  0.55341152    -0.57800
O68         O  0.51291222  0.06098541  0.52204042    -0.56300
O69         O  0.65729261  0.10404979  0.54409918    -0.56300
O70         O  0.65293218  0.07462321  0.45462236    -0.55500
C71         C  0.32915120  0.24965000  0.29048950    -0.01300
O72         O  0.42697569  0.02164954  0.51793684    -0.56700
C73         C  0.35708798  0.91997579  0.44170953     0.76000
O74         O  0.37992192  0.93803064  0.54278067    -0.57800
C75         C  0.46335848  0.01496360  0.49975604     0.75900
C76         C  0.33097678  0.03497114  0.45631638     0.78300
Cd77       Cd  0.37368897  0.97689935  0.49117527     1.37500
O78         O  0.32530868  0.94123561  0.45091698    -0.56700
O79         O  0.30752914  0.01926794  0.47934619    -0.55500
C80         C  0.34381100  0.94924603  0.55897787     0.78300
O81         O  0.37167594  0.02303380  0.44941007    -0.57800
O82         O  0.39743554  0.92464989  0.45498711    -0.56300
O83         O  0.45991905  0.98915025  0.47982141    -0.56300
O84         O  0.32177656  0.97356172  0.54451938    -0.55500
C85         C  0.68721761  0.24107641  0.21030421    -0.01300
O86         O  0.59679497  0.92716775  0.04560596    -0.56700
C87         C  0.52439011  0.02151399  0.00181397     0.76000
O88         O  0.67500221  0.02494077  0.00895170    -0.57800
C89         C  0.63813833  0.92504995  0.05808810     0.75900
C90         C  0.62317419  0.94757284  0.93932559     0.78300
Cd91       Cd  0.61196875  0.97959638  0.00803836     1.37500
O92         O  0.56216524  0.02781815  0.98524335    -0.56700
O93         O  0.65869738  0.96079366  0.95409290    -0.55500
C94         C  0.65888912  0.03855270  0.03651614     0.78300
O95         O  0.58449888  0.94912499  0.95593238    -0.57800
O96         O  0.52557742  0.99493797  0.02078091    -0.56300
O97         O  0.66678684  0.94794026  0.04818685    -0.56300
O98         O  0.62356157  0.02408553  0.05042650    -0.55500
C99         C  0.32120516  0.81288796  0.79541938    -0.01300
O100        O  0.41387070  0.13384178  0.94666512    -0.56700
C101        C  0.48153475  0.04401272  0.99880679     0.76000
O102        O  0.41843454  0.11698948  0.04347688    -0.57800
C103        C  0.37123947  0.14426153  0.94466859     0.75900
C104        C  0.34391230  0.02984919  0.95733036     0.78300
Cd105      Cd  0.39459703  0.08590312  0.99022360     1.37500
O106        O  0.44318581  0.03753084  0.01468185    -0.56700
O107        O  0.38227968  0.04208052  0.94577565    -0.55500
C108        C  0.37856319  0.11697216  0.05868404     0.78300
O109        O  0.32707836  0.04403052  0.98427523    -0.57800
O110        O  0.48101706  0.07074857  0.98006271    -0.56300
O111        O  0.34173654  0.12807468  0.96298400    -0.56300
O112        O  0.34532815  0.10199077  0.04292962    -0.55500
C113        C  0.32816672  0.94706779  0.90358481     0.19800
C114        C  0.35477518  0.91662679  0.90370130    -0.18200
C115        C  0.34251247  0.88885316  0.88278502    -0.10500
C116        C  0.30434352  0.89135849  0.85976691     0.22100
C117        C  0.27615841  0.92129867  0.86099369    -0.19900
C118        C  0.28777209  0.94889341  0.88282529    -0.10700
C119        C  0.29426243  0.86393131  0.83359341    -0.14900
C120        C  0.32700878  0.84031142  0.82375940    -0.28700
C121        C  0.34713122  0.97745300  0.92207133    -0.03000
C122        C  0.32078881  0.00029364  0.94014893    -0.39500
H123        H  0.38577604  0.91449570  0.91978991     0.13200
H124        H  0.36375632  0.86581432  0.88467168     0.12900
H125        H  0.24609722  0.92387847  0.84407838     0.12300
H126        H  0.26680910  0.97222769  0.88207925     0.12500
H127        H  0.26062702  0.86484853  0.82030691     0.15300
H128        H  0.36165170  0.84238592  0.83520443     0.14100
H129        H  0.38547662  0.98025577  0.92193519     0.11700
H130        H  0.28288224  0.99652315  0.94333942     0.13800
C131        C  0.66950734  0.12106515  0.09035130     0.19800
C132        C  0.64385016  0.15115441  0.08391185    -0.18200
C133        C  0.65222828  0.18100964  0.10293573    -0.10500
C134        C  0.68535157  0.18111996  0.12962093     0.22100
C135        C  0.71241910  0.15116167  0.13528873    -0.19900
C136        C  0.70456018  0.12134642  0.11567029    -0.10700
C137        C  0.68726018  0.21219184  0.15210871    -0.14900
C138        C  0.70006544  0.21163033  0.18544068    -0.28700
C139        C  0.65346493  0.08855762  0.07473627    -0.03000
C140        C  0.67916637  0.07008503  0.05184313    -0.39500
H141        H  0.61614418  0.15121320  0.06483302     0.13200
H142        H  0.63089704  0.20360847  0.09796229     0.12900
H143        H  0.73887474  0.15035615  0.15518384     0.12300
H144        H  0.72408457  0.09809068  0.12139107     0.12500
H145        H  0.67049863  0.23536301  0.14252615     0.15300
H146        H  0.71590324  0.18846608  0.19570857     0.14100
H147        H  0.61743235  0.08079684  0.08093300     0.11700
H148        H  0.71386862  0.07892080  0.04352085     0.13800
C149        C  0.32603483  0.86425354  0.70947401     0.19800
C150        C  0.36326849  0.85351068  0.68781478    -0.18200
C151        C  0.36884931  0.86701359  0.65475414    -0.10500
C152        C  0.33802934  0.89245515  0.64230793     0.22100
C153        C  0.29960374  0.90275191  0.66370675    -0.19900
C154        C  0.29379173  0.88879289  0.69701567    -0.10700
C155        C  0.34921263  0.90754014  0.60750700    -0.14900
C156        C  0.32802947  0.93510976  0.59300018    -0.28700
C157        C  0.32859415  0.85488206  0.74656578    -0.03000
C158        C  0.30328386  0.82951779  0.76196436    -0.39500
H159        H  0.38942721  0.83551060  0.69709744     0.13200
H160        H  0.39873889  0.85835193  0.63925452     0.12900
H161        H  0.27466007  0.92202318  0.65529725     0.12300
H162        H  0.26546582  0.89826516  0.71354195     0.12500
H163        H  0.37831457  0.89562238  0.59325253     0.15300
H164        H  0.29886495  0.94799352  0.60614342     0.14100
H165        H  0.35948147  0.86458958  0.75987857     0.11700
H166        H  0.27338584  0.81822527  0.74872912     0.13800
C167        C  0.31909171  0.18935686  0.20910286     0.19800
C168        C  0.34177873  0.15771436  0.20229077    -0.18200
C169        C  0.34666339  0.14486640  0.16875371    -0.10500
C170        C  0.32843947  0.16299198  0.14071630     0.22100
C171        C  0.30437139  0.19421284  0.14730606    -0.19900
C172        C  0.30019030  0.20752035  0.18106604    -0.10700
C173        C  0.33297102  0.14872206  0.10490263    -0.14900
C174        C  0.37273554  0.13251232  0.09356911    -0.28700
C175        C  0.31860924  0.20212077  0.24567315    -0.03000
C176        C  0.30956033  0.23482522  0.25646137    -0.39500
H177        H  0.35661871  0.14291660  0.22309270     0.13200
H178        H  0.36428757  0.12034979  0.16483549     0.12900
H179        H  0.28948179  0.20858959  0.12623989     0.12300
H180        H  0.28209583  0.23181432  0.18495273     0.12500
H181        H  0.30382975  0.15254364  0.08730962     0.15300
H182        H  0.40347626  0.13185919  0.11009005     0.14100
H183        H  0.33263547  0.18418603  0.26426016     0.11700
H184        H  0.29812303  0.25352171  0.23768285     0.13800
C185        C  0.55835908  0.26292000  0.23955726     0.19800
C186        C  0.52854237  0.29088235  0.24801692    -0.18200
C187        C  0.48087970  0.28546715  0.25774215    -0.10500
C188        C  0.46276901  0.25182555  0.25973514     0.22100
C189        C  0.49304493  0.22414631  0.25162715    -0.19900
C190        C  0.53997586  0.22952052  0.24183362    -0.10700
C191        C  0.41320531  0.24307467  0.26985809    -0.14900
C192        C  0.37825375  0.26445208  0.28121392    -0.28700
C193        C  0.60961641  0.26791345  0.23143049    -0.03000
C194        C  0.63322132  0.24622284  0.21000241    -0.39500
H195        H  0.54211988  0.31686066  0.24701686     0.13200
H196        H  0.45869476  0.30746855  0.26372237     0.12900
H197        H  0.48048391  0.19790717  0.25321830     0.12300
H198        H  0.56224534  0.20724583  0.23700680     0.12500
H199        H  0.40498509  0.21588845  0.26853046     0.15300
H200        H  0.38474092  0.29180279  0.28389054     0.14100
H201        H  0.62908107  0.28708699  0.24589488     0.11700
H202        H  0.61247187  0.22846600  0.19464720     0.13800
C203        C  0.32967283  0.11511254  0.39724974     0.19800
C204        C  0.28437305  0.13048970  0.39669413    -0.18200
C205        C  0.27556651  0.15877893  0.37522868    -0.10500
C206        C  0.31167985  0.17239251  0.35421000     0.22100
C207        C  0.35666596  0.15666275  0.35476836    -0.19900
C208        C  0.36545587  0.12879752  0.37616180    -0.10700
C209        C  0.30146336  0.20161554  0.33053328    -0.14900
C210        C  0.33597360  0.22230072  0.31831827    -0.28700
C211        C  0.34217751  0.08448565  0.41828666    -0.03000
C212        C  0.31270758  0.06579712  0.43827915    -0.39500
H213        H  0.25574959  0.12083079  0.41246987     0.13200
H214        H  0.24038027  0.17007853  0.37502731     0.12900
H215        H  0.38508422  0.16500264  0.33803047     0.12300
H216        H  0.40062159  0.11739076  0.37566437     0.12500
H217        H  0.26523959  0.20565061  0.32217490     0.15300
H218        H  0.37136021  0.21948988  0.32864500     0.14100
H219        H  0.37909192  0.07629900  0.41659993     0.11700
H220        H  0.27567735  0.07286708  0.44159333     0.13800
C221        C  0.68242796  0.18864660  0.29668400     0.19800
C222        C  0.68647511  0.15318951  0.30279442    -0.18200
C223        C  0.67651901  0.13938901  0.33528840    -0.10500
C224        C  0.66134701  0.16074425  0.36265279     0.22100
C225        C  0.65920350  0.19648579  0.35684274    -0.19900
C226        C  0.66990511  0.21035387  0.32430839    -0.10700
C227        C  0.64359598  0.14654985  0.39629210    -0.14900
C228        C  0.65334933  0.11458397  0.40788428    -0.28700
C229        C  0.68079459  0.20051490  0.26034212    -0.03000
C230        C  0.69915512  0.23005557  0.24731359    -0.39500
H231        H  0.69517422  0.13580611  0.28178008     0.13200
H232        H  0.67804926  0.11178431  0.33807152     0.12900
H233        H  0.64745973  0.21366474  0.37724517     0.12300
H234        H  0.66516127  0.23765133  0.32018894     0.12500
H235        H  0.62165700  0.16330406  0.41231824     0.15300
H236        H  0.67770662  0.09813267  0.39359478     0.14100
H237        H  0.66137932  0.18375570  0.24308510     0.11700
H238        H  0.72008434  0.24678918  0.26359103     0.13800
C239        C  0.66036357  0.90066852  0.85403907     0.19800
C240        C  0.68558175  0.87021114  0.84621245    -0.18200
C241        C  0.68193069  0.85429973  0.81363222    -0.10500
C242        C  0.65346916  0.86890941  0.78791616     0.22100
C243        C  0.62976299  0.89995747  0.79556945    -0.19900
C244        C  0.63312534  0.91559320  0.82797847    -0.10700
C245        C  0.64483981  0.85254998  0.75347073    -0.14900
C246        C  0.66915545  0.82594889  0.73882640    -0.28700
C247        C  0.66262103  0.91669150  0.88925236    -0.03000
C248        C  0.62449936  0.93208435  0.90416642    -0.39500
H249        H  0.70711680  0.85818678  0.86566785     0.13200
H250        H  0.70051566  0.83031653  0.80906615     0.12900
H251        H  0.60793531  0.91214271  0.77637316     0.12300
H252        H  0.61434391  0.93952864  0.83257200     0.12500
H253        H  0.61597547  0.86346060  0.73873956     0.15300
H254        H  0.69896921  0.81464985  0.75208641     0.14100
H255        H  0.69503216  0.91402906  0.90382877     0.11700
H256        H  0.59099673  0.93161108  0.89069673     0.13800
C257        C  0.53519285  0.77220404  0.73581932     0.19800
C258        C  0.50169570  0.77511970  0.70934278    -0.18200
C259        C  0.45304563  0.77637286  0.71698902    -0.10500
C260        C  0.43668609  0.77497807  0.75115991     0.22100
C261        C  0.46997752  0.76887278  0.77721634    -0.19900
C262        C  0.51858821  0.76748932  0.76956259    -0.10700
C263        C  0.38549916  0.78211945  0.75893253    -0.14900
C264        C  0.37128951  0.79793242  0.78835666    -0.28700
C265        C  0.58718912  0.77676912  0.72965356    -0.03000
C266        C  0.60375791  0.79836573  0.70540328    -0.39500
H267        H  0.51292137  0.77722878  0.68277651     0.13200
H268        H  0.42827395  0.77989095  0.69621030     0.12900
H269        H  0.45879375  0.76586635  0.80368564     0.12300
H270        H  0.54342675  0.76439300  0.79037596     0.12500
H271        H  0.36003789  0.77838915  0.73849184     0.15300
H272        H  0.39839115  0.80277898  0.80732289     0.14100
H273        H  0.61174338  0.76654241  0.74837377     0.11700
H274        H  0.57803122  0.80985994  0.68838207     0.13800
C275        C  0.68487137  0.94378344  0.59982752     0.19800
C276        C  0.71845469  0.94333476  0.62614421    -0.18200
C277        C  0.72385862  0.91429712  0.64679815    -0.10500
C278        C  0.69466713  0.88562681  0.64219602     0.22100
C279        C  0.66274333  0.88532546  0.61457796    -0.19900
C280        C  0.65785658  0.91416713  0.59359001    -0.10700
C281        C  0.69616809  0.85727355  0.66760062    -0.14900
C282        C  0.65645686  0.84071209  0.67717526    -0.28700
C283        C  0.67463186  0.97660815  0.58224593    -0.03000
C284        C  0.66140279  0.97850678  0.54926126    -0.39500
H285        H  0.73964013  0.96590169  0.63133665     0.13200
H286        H  0.74908193  0.91493950  0.66756889     0.12900
H287        H  0.64072814  0.86313266  0.60965353     0.12300
H288        H  0.63128518  0.91388974  0.57372013     0.12500
H289        H  0.72938632  0.85132189  0.68014259     0.15300
H290        H  0.62345550  0.84881977  0.66556543     0.14100
H291        H  0.67742025  0.00011952  0.59731334     0.11700
H292        H  0.66163319  0.95564051  0.53310324     0.13800
C293        C  0.22589571  0.75712866  0.84652391     0.19800
C294        C  0.23540412  0.72212228  0.83969953    -0.18200
C295        C  0.21642338  0.69625404  0.86075991    -0.10500
C296        C  0.18624007  0.70429864  0.88860841     0.22100
C297        C  0.17519243  0.73905718  0.89493016    -0.19900
C298        C  0.19487997  0.76509857  0.87418630    -0.10700
C299        C  0.17101767  0.67624004  0.91242638    -0.14900
C300        C  0.12572953  0.67071190  0.92267825    -0.28700
C301        C  0.24859315  0.78591102  0.82633755    -0.03000
C302        C  0.29028347  0.78282630  0.80867162    -0.39500
H303        H  0.25769125  0.71440834  0.81824760     0.13200
H304        H  0.22553533  0.66968052  0.85532063     0.12900
H305        H  0.15282009  0.74614439  0.91663361     0.12300
H306        H  0.18681480  0.79169079  0.88036398     0.12500
H307        H  0.19816802  0.65799793  0.92004728     0.15300
H308        H  0.09771309  0.68723498  0.91316985     0.14100
H309        H  0.23257358  0.81110443  0.82908052     0.11700
H310        H  0.30651108  0.75751021  0.80750476     0.13800
C311        C  0.23134823  0.25921208  0.86352204     0.19800
C312        C  0.20958067  0.23646434  0.88646624    -0.18200
C313        C  0.23607055  0.21273238  0.90503772    -0.10500
C314        C  0.28565398  0.21083757  0.90185287     0.22100
C315        C  0.30824922  0.23367502  0.87883968    -0.19900
C316        C  0.28120940  0.25765929  0.85975545    -0.10700
C317        C  0.31015247  0.18476520  0.92400187    -0.14900
C318        C  0.35557526  0.17334678  0.92212291    -0.28700
C319        C  0.20037004  0.28590682  0.84731230    -0.03000
C320        C  0.20587119  0.29949035  0.81555166    -0.39500
H321        H  0.17152080  0.23716429  0.89026576     0.13200
H322        H  0.21729625  0.19571288  0.92238187     0.12900
H323        H  0.34640924  0.23347666  0.87599133     0.12300
H324        H  0.29930015  0.27556327  0.84297320     0.12500
H325        H  0.28740159  0.17272595  0.94313819     0.15300
H326        H  0.38040667  0.18426821  0.90374584     0.14100
H327        H  0.16972930  0.29427114  0.86236416     0.11700
H328        H  0.23518885  0.29077520  0.79938891     0.13800
C329        C  0.20107961  0.46881142  0.89251259     0.19800
C330        C  0.20090881  0.47003229  0.85638809    -0.18200
C331        C  0.20846246  0.44030711  0.83672359    -0.10500
C332        C  0.21627082  0.40874159  0.85281178     0.22100
C333        C  0.21929967  0.40751514  0.88869466    -0.19900
C334        C  0.21209250  0.43734107  0.90848008    -0.10700
C335        C  0.21702602  0.37691639  0.83203762    -0.14900
C336        C  0.17710766  0.35849708  0.82829405    -0.28700
C337        C  0.18424176  0.49986727  0.91179069    -0.03000
C338        C  0.17831064  0.50205639  0.94617988    -0.39500
H339        H  0.19271167  0.49380260  0.84328320     0.13200
H340        H  0.20601857  0.44164025  0.80899758     0.12900
H341        H  0.22563345  0.38325166  0.90141455     0.12300
H342        H  0.21321111  0.43504858  0.93609099     0.12500
H343        H  0.24830667  0.37087959  0.81664514     0.15300
H344        H  0.14592315  0.36616388  0.84316585     0.14100
H345        H  0.17204830  0.52132087  0.89635052     0.11700
H346        H  0.19094074  0.48200922  0.96302946     0.13800
C347        C  0.76862044  0.37336185  0.11309018     0.19800
C348        C  0.79595484  0.34761040  0.12913414    -0.18200
C349        C  0.77422986  0.32312142  0.15105166    -0.10500
C350        C  0.72479060  0.32389449  0.15735346     0.22100
C351        C  0.69828300  0.34996071  0.14167944    -0.19900
C352        C  0.71969215  0.37413165  0.12014557    -0.10700
C353        C  0.69767101  0.29681159  0.17678402    -0.14900
C354        C  0.71554710  0.27298117  0.19855637    -0.28700
C355        C  0.78748846  0.39950972  0.08800369    -0.03000
C356        C  0.83317056  0.40503494  0.07842094    -0.39500
H357        H  0.83367051  0.34581948  0.12432927     0.13200
H358        H  0.79596744  0.30309447  0.16202604     0.12900
H359        H  0.66027903  0.35134415  0.14561050     0.12300
H360        H  0.69733955  0.39341477  0.10840218     0.12500
H361        H  0.66009909  0.29572288  0.17128700     0.15300
H362        H  0.75326308  0.27309551  0.20366954     0.14100
H363        H  0.76080217  0.41578457  0.07625879     0.11700
H364        H  0.86157095  0.38992998  0.08944279     0.13800
C365        C  0.75830604  0.81481020  0.15875607     0.19800
C366        C  0.76124979  0.84904194  0.17029791    -0.18200
C367        C  0.73762383  0.87568451  0.15277998    -0.10500
C368        C  0.70983451  0.86880137  0.12357870     0.22100
C369        C  0.70527035  0.83425727  0.11311835    -0.19900
C370        C  0.72965122  0.80779654  0.13019628    -0.10700
C371        C  0.69114027  0.89817995  0.10231908    -0.14900
C372        C  0.65249033  0.89658107  0.08181368    -0.28700
C373        C  0.79258710  0.78793475  0.17062661    -0.03000
C374        C  0.78974241  0.77033619  0.20068727    -0.39500
H375        H  0.78412063  0.85546783  0.19155994     0.13200
H376        H  0.74240925  0.90195527  0.16137534     0.12900
H377        H  0.68530703  0.82779262  0.09039838     0.12300
H378        H  0.72782474  0.78184554  0.12008852     0.12500
H379        H  0.71049621  0.92223550  0.10348744     0.15300
H380        H  0.63070364  0.87367282  0.08214172     0.14100
H381        H  0.81978790  0.78038567  0.15209958     0.11700
H382        H  0.76143268  0.77663562  0.21879515     0.13800
C383        C  0.78580558  0.67497848  0.13621436     0.19800
C384        C  0.75921344  0.64455622  0.13528600    -0.18200
C385        C  0.76486346  0.62094602  0.10801689    -0.10500
C386        C  0.79680018  0.62762212  0.08072859     0.22100
C387        C  0.82070281  0.65925916  0.08064410    -0.19900
C388        C  0.81520136  0.68265689  0.10787152    -0.10700
C389        C  0.81063345  0.60133683  0.05409493    -0.14900
C390        C  0.78878507  0.57090374  0.04894857    -0.28700
C391        C  0.78381748  0.69791540  0.16719651    -0.03000
C392        C  0.82277116  0.71446229  0.17831695    -0.39500
H393        H  0.73576486  0.63825515  0.15650496     0.13200
H394        H  0.74574037  0.59697580  0.10940502     0.12900
H395        H  0.84506446  0.66545603  0.05993278     0.12300
H396        H  0.83476609  0.70653835  0.10697694     0.12500
H397        H  0.84282167  0.60642693  0.03947541     0.15300
H398        H  0.75600059  0.56501775  0.06230726     0.14100
H399        H  0.75080122  0.70036339  0.18159560     0.11700
H400        H  0.85566705  0.70961247  0.16436717     0.13800
C401        C  0.27713258  0.32394078  0.34939820     0.19800
C402        C  0.29697905  0.35647610  0.35469644    -0.18200
C403        C  0.27324645  0.38150425  0.37441252    -0.10500
C404        C  0.22921565  0.37470564  0.39017072     0.22100
C405        C  0.20853215  0.34219486  0.38432724    -0.19900
C406        C  0.23226947  0.31710441  0.36400287    -0.10700
C407        C  0.20899474  0.40165372  0.41410568    -0.14900
C408        C  0.16470991  0.40259962  0.42783284    -0.28700
C409        C  0.30740510  0.29645775  0.33339681    -0.03000
C410        C  0.29594644  0.27777195  0.30521020    -0.39500
H411        H  0.33169092  0.36229365  0.34417236     0.13200
H412        H  0.29027968  0.40613214  0.37823971     0.12900
H413        H  0.17511666  0.33556624  0.39634529     0.12300
H414        H  0.21672104  0.29185015  0.36112115     0.12500
H415        H  0.23270823  0.42257254  0.42078152     0.15300
H416        H  0.13899948  0.38312321  0.42100942     0.14100
H417        H  0.34222730  0.29271554  0.34445542     0.11700
H418        H  0.26210227  0.28249906  0.29300713     0.13800
C419        C  0.15082873  0.40417403  0.65048564     0.19800
C420        C  0.19750956  0.40360948  0.66318286    -0.18200
C421        C  0.20689167  0.39071464  0.69610970    -0.10500
C422        C  0.17002734  0.37788554  0.71670198     0.22100
C423        C  0.12388508  0.37732035  0.70367874    -0.19900
C424        C  0.11450282  0.38997610  0.67083230    -0.10700
C425        C  0.17710747  0.37087718  0.75363113    -0.14900
C426        C  0.18696226  0.33923093  0.76603875    -0.28700
C427        C  0.13812524  0.41931955  0.61651184    -0.03000
C428        C  0.16438528  0.44286391  0.59961564    -0.39500
H429        H  0.22676023  0.41337504  0.64803819     0.13200
H430        H  0.24261598  0.39182431  0.70595824     0.12900
H431        H  0.09476508  0.36813533  0.71943627     0.12300
H432        H  0.07831703  0.38978964  0.66177123     0.12500
H433        H  0.16563777  0.39123447  0.77099464     0.15300
H434        H  0.19435377  0.31879191  0.74755704     0.14100
H435        H  0.10427773  0.41189385  0.60568143     0.11700
H436        H  0.19753369  0.45175780  0.61031492     0.13800
C437        C  0.28814608  0.85603234  0.38230463     0.19800
C438        C  0.31908828  0.83699738  0.36066750    -0.18200
C439        C  0.30143243  0.81084146  0.33892903    -0.10500
C440        C  0.25255492  0.80342627  0.33801417     0.22100
C441        C  0.22221466  0.82214910  0.36018065    -0.19900
C442        C  0.23965752  0.84805385  0.38162509    -0.10700
C443        C  0.23387700  0.77429531  0.31645436    -0.14900
C444        C  0.18828989  0.77328378  0.30568522    -0.28700
C445        C  0.30319975  0.88509237  0.40535344    -0.03000
C446        C  0.34744559  0.89111792  0.41706132    -0.39500
H447        H  0.35666897  0.84246375  0.36013719     0.13200
H448        H  0.32591271  0.79651395  0.32268403     0.12900
H449        H  0.18478223  0.81634717  0.36178001     0.12300
H450        H  0.21490219  0.86178710  0.39816686     0.12500
H451        H  0.25681025  0.75225485  0.31201590     0.15300
H452        H  0.16735447  0.79660693  0.30879599     0.14100
H453        H  0.27500891  0.90196785  0.41455151     0.11700
H454        H  0.37650742  0.87427379  0.40958577     0.13800
C455        C  0.15132748  0.68418956  0.21135750     0.19800
C456        C  0.11435186  0.66195616  0.20200245    -0.18200
C457        C  0.11151202  0.64826468  0.16877843    -0.10500
C458        C  0.14591307  0.65610583  0.14371972     0.22100
C459        C  0.18358330  0.67783603  0.15306362    -0.19900
C460        C  0.18607000  0.69206882  0.18643322    -0.10700
C461        C  0.14406952  0.64050451  0.10843371    -0.14900
C462        C  0.10284661  0.63302524  0.09268179    -0.28700
C463        C  0.15088732  0.69798432  0.24737364    -0.03000
C464        C  0.17503934  0.72548698  0.25980029    -0.39500
H465        H  0.08714879  0.65515627  0.22055304     0.13200
H466        H  0.08276005  0.63087063  0.16303661     0.12900
H467        H  0.21092464  0.68401184  0.13441711     0.12300
H468        H  0.21536139  0.70877196  0.19265292     0.12500
H469        H  0.17728247  0.63578580  0.09485099     0.15300
H470        H  0.06958558  0.64032884  0.10496675     0.14100
H471        H  0.12507934  0.68631332  0.26460787     0.11700
H472        H  0.20089555  0.73869575  0.24391307     0.13800
C473        C  0.94111092  0.77508188  0.24704418     0.19800
C474        C  0.97535369  0.77902511  0.22086122    -0.18200
C475        C  0.02367894  0.77868591  0.22858729    -0.10500
C476        C  0.03888748  0.77404997  0.26248641     0.22100
C477        C  0.00462720  0.77174172  0.28890156    -0.19900
C478        C  0.95623490  0.77244624  0.28120875    -0.10700
C479        C  0.09056214  0.77061240  0.26899795    -0.14900
C480        C  0.10828220  0.74999935  0.29358270    -0.28700
C481        C  0.88977856  0.77141287  0.23944594    -0.03000
C482        C  0.87454078  0.75389574  0.21162840    -0.39500
H483        H  0.96491619  0.78200323  0.19435819     0.13200
H484        H  0.04933475  0.78091053  0.20782246     0.12900
H485        H  0.01506226  0.76914568  0.31544320     0.12300
H486        H  0.93055028  0.76963618  0.30188168     0.12500
H487        H  0.11494234  0.78187957  0.25045995     0.15300
H488        H  0.08355300  0.73714225  0.31073402     0.14100
H489        H  0.86442228  0.77812067  0.25962011     0.11700
H490        H  0.90090235  0.74555210  0.19282587     0.13800
C491        C  0.19959622  0.60631652  0.39418164     0.19800
C492        C  0.18767232  0.63942369  0.40631709    -0.18200
C493        C  0.19051346  0.66774309  0.38433068    -0.10500
C494        C  0.20567024  0.66343991  0.35002361     0.22100
C495        C  0.21985106  0.63076180  0.33854299    -0.19900
C496        C  0.21616383  0.60240404  0.36025242    -0.10700
C497        C  0.20457781  0.69210427  0.32513710    -0.14900
C498        C  0.16731350  0.71376205  0.32356388    -0.28700
C499        C  0.18968483  0.57494825  0.41445590    -0.03000
C500        C  0.18784658  0.57389050  0.44899895    -0.39500
H501        H  0.17392895  0.64329083  0.43211481     0.13200
H502        H  0.17998944  0.69286084  0.39390781     0.12900
H503        H  0.23162561  0.62690113  0.31221322     0.12300
H504        H  0.22515633  0.57713494  0.35023378     0.12500
H505        H  0.23189432  0.69289910  0.30529708     0.15300
H506        H  0.13880932  0.71051049  0.34226003     0.14100
H507        H  0.18207688  0.55166381  0.39995664     0.10500
H508        H  0.19783943  0.59608522  0.46429661     0.13800
C509        C  0.73924486  0.23941505  0.66101013     0.19800
C510        C  0.69048977  0.23677776  0.65384086    -0.18200
C511        C  0.67276501  0.21070586  0.63217463    -0.10500
C512        C  0.70337438  0.18637415  0.61650192     0.22100
C513        C  0.75208753  0.18876840  0.62402227    -0.19900
C514        C  0.76977277  0.21477867  0.64576809    -0.10700
C515        C  0.68683698  0.15827888  0.59226373    -0.14900
C516        C  0.64212228  0.15447100  0.58002398    -0.28700
C517        C  0.75679307  0.26980938  0.68180009    -0.03000
C518        C  0.80063109  0.27275211  0.69583738    -0.39500
H519        H  0.66585402  0.25527947  0.66483970     0.13200
H520        H  0.63502710  0.21004827  0.62778635     0.12900
H521        H  0.77688925  0.17068068  0.61254446     0.12300
H522        H  0.80763495  0.21596612  0.64963593     0.12500
H523        H  0.71345558  0.13989472  0.58359169     0.15300
H524        H  0.61458674  0.17244102  0.58763045     0.14100
H525        H  0.73298821  0.29170465  0.68426518     0.11700
H526        H  0.82416932  0.25068125  0.69455760     0.13800
C527        C  0.78459368  0.36818659  0.78616685     0.19800
C528        C  0.81413283  0.35616066  0.81248329    -0.18200
C529        C  0.81937032  0.37502705  0.84324311    -0.10500
C530        C  0.79515413  0.40651474  0.84858655     0.22100
C531        C  0.76411626  0.41759165  0.82281111    -0.19900
C532        C  0.75949452  0.39903630  0.79190985    -0.10700
C533        C  0.80114634  0.42839356  0.88042454    -0.14900
C534        C  0.83976375  0.42716365  0.90073416    -0.28700
C535        C  0.78630546  0.35302119  0.75063040    -0.03000
C536        C  0.79451889  0.31923764  0.74307921    -0.39500
H537        H  0.83508774  0.33304355  0.80867208     0.13200
H538        H  0.84271930  0.36489430  0.86258562     0.12900
H539        H  0.74455592  0.44143686  0.82605419     0.12300
H540        H  0.73712287  0.40933194  0.77197045     0.12500
H541        H  0.77347169  0.44698501  0.88666210     0.15300
H542        H  0.86842000  0.40962345  0.89406270     0.14100
H543        H  0.78709603  0.37184889  0.73022855     0.11700
H544        H  0.79306233  0.30101837  0.76411744     0.13800
C545        C  0.03671279  0.33278121  0.78151615     0.19800
C546        C  0.00625352  0.36131873  0.77999971    -0.18200
C547        C  0.96163093  0.35886968  0.76523425    -0.10500
C548        C  0.94539704  0.32776863  0.75132660     0.22100
C549        C  0.97501394  0.29851432  0.75364305    -0.19900
C550        C  0.02043135  0.30103598  0.76858428    -0.10700
C551        C  0.89751546  0.32847237  0.73502134    -0.14900
C552        C  0.87269896  0.30172890  0.72187841    -0.28700
C553        C  0.08640133  0.33958179  0.79269626    -0.03000
C554        C  0.12101166  0.31656799  0.80027849    -0.39500
H555        H  0.01756125  0.38617715  0.78949321     0.13200
H556        H  0.93985440  0.38185289  0.76424254     0.12900
H557        H  0.96383374  0.27399999  0.74340186     0.12300
H558        H  0.04315361  0.27857286  0.76885036     0.12500
H559        H  0.88033225  0.35350499  0.73456253     0.15300
H560        H  0.88849060  0.27626890  0.72121816     0.14100
H561        H  0.09602339  0.36655403  0.79301298     0.11700
H562        H  0.11278939  0.28938445  0.80188988     0.13800
C563        C  0.77931813  0.70250322  0.59986098     0.19800
C564        C  0.77603672  0.69891617  0.63589713    -0.18200
C565        C  0.74713543  0.72144391  0.65575867    -0.10500
C566        C  0.72107468  0.74781929  0.63982056     0.22100
C567        C  0.72621618  0.75197719  0.60416093    -0.19900
C568        C  0.75478952  0.72975277  0.58455351    -0.10700
C569        C  0.68538545  0.77014623  0.65805969    -0.14900
C570        C  0.68851225  0.78253567  0.69059552    -0.28700
C571        C  0.80236872  0.67639910  0.57658949    -0.03000
C572        C  0.84124700  0.65748654  0.58374605    -0.39500
H573        H  0.79377685  0.67777760  0.64846065     0.13200
H574        H  0.74351701  0.71725174  0.68312550     0.12900
H575        H  0.70699184  0.77217460  0.59114939     0.12300
H576        H  0.75659634  0.73327345  0.55697933     0.12500
H577        H  0.65692412  0.78010114  0.64227445     0.15300
H578        H  0.71770207  0.77433011  0.70659805     0.14100
H579        H  0.78676931  0.67330409  0.55134404     0.11700
H580        H  0.85988727  0.66164421  0.60766336     0.13800
C581        C  0.85779971  0.65642556  0.35752113     0.19800
C582        C  0.85371397  0.63363854  0.32941616    -0.18200
C583        C  0.84514945  0.64605333  0.29609528    -0.10500
C584        C  0.83909000  0.68142550  0.28992718     0.22100
C585        C  0.84236082  0.70417314  0.31803448    -0.19900
C586        C  0.85212424  0.69185309  0.35122988    -0.10700
C587        C  0.83762553  0.69427461  0.25362578    -0.14900
C588        C  0.81206489  0.72181011  0.24271289    -0.28700
C589        C  0.87062146  0.64445688  0.39306719    -0.03000
C590        C  0.86000195  0.61299121  0.40572538    -0.39500
H591        H  0.85904709  0.60630770  0.33277996     0.13200
H592        H  0.84417444  0.62795837  0.27485802     0.12900
H593        H  0.83969238  0.73164285  0.31407549     0.12300
H594        H  0.85577044  0.71017802  0.37208042     0.12500
H595        H  0.86163575  0.68177888  0.23542657     0.15300
H596        H  0.78641748  0.73355451  0.26020819     0.14100
H597        H  0.88780391  0.66282755  0.40992950     0.11700
H598        H  0.83992155  0.59522965  0.39003237     0.13800
C599        C  0.86189768  0.43409869  0.59933515     0.19800
C600        C  0.81730531  0.41914615  0.60558224    -0.18200
C601        C  0.81375026  0.38837668  0.62430651    -0.10500
C602        C  0.85481835  0.37206168  0.63683769     0.22100
C603        C  0.89911516  0.38628045  0.62892875    -0.19900
C604        C  0.90258291  0.41697872  0.61080142    -0.10700
C605        C  0.85403340  0.34148286  0.65974666    -0.14900
C606        C  0.81759515  0.33345304  0.68091665    -0.28700
C607        C  0.86851273  0.46839358  0.58323263    -0.03000
C608        C  0.83826754  0.48414523  0.56170139    -0.39500
H609        H  0.78519044  0.43171283  0.59718387     0.13200
H610        H  0.77898876  0.37777961  0.62916705     0.12900
H611        H  0.93134347  0.37429895  0.63804233     0.12300
H612        H  0.93739577  0.42776166  0.60625669     0.12500
H613        H  0.88705770  0.32728454  0.66196822     0.15300
H614        H  0.78394569  0.34658677  0.67781233     0.14100
H615        H  0.90225366  0.48075564  0.58820482     0.11700
H616        H  0.80553390  0.47186860  0.55411890     0.13800
loop_ 
_geom_bond_atom_site_label_1 
_geom_bond_atom_site_label_2 
_geom_bond_distance 
_geom_bond_site_symmetry_2 
_ccdc_geom_bond_type 
O1            C4   1.266       .  A
O1           Cd6   2.497       .  S
C2           O11   1.272       .  A
C2            O7   1.263       .  A
C2           C17   1.486   1_655  S
O3            C9   1.269       .  A
O3           Cd6   2.528       .  S
C4           O12   1.269       .  A
C4          C572   1.496       .  S
C5           O10   1.269       .  A
C5            O8   1.268       .  A
C5          C590   1.498       .  S
Cd6          O13   2.431       .  S
Cd6          O12   2.541       .  S
Cd6          O11   2.532       .  S
Cd6           O7   2.486       .  S
Cd6          O10   2.545       .  S
Cd6           O8   2.504       .  S
C9           O13   1.263       .  A
C9          C608   1.486       .  S
C14         C518   1.549       .  S
C14         C536   1.550       .  S
C14         C552   1.551       .  S
C14         C606   1.542       .  S
C15         C444   1.540       .  S
C15         C464   1.544       .  S
C15         C480   1.538       .  S
C15         C498   1.532       .  S
O16          C19   1.270       .  A
O16         Cd21   2.537       .  S
C17          O26   1.270       .  A
C17          O22   1.263       .  A
O18          C24   1.265       .  A
O18         Cd21   2.500       .  S
C19          O27   1.266       .  A
C19         C408   1.497       .  S
C20          O25   1.268       .  A
C20          O23   1.265       .  A
C20         C500   1.476       .  S
Cd21         O28   2.504       .  S
Cd21         O27   2.485       .  S
Cd21         O26   2.523       .  S
Cd21         O22   2.508       .  S
Cd21         O25   2.490       .  S
Cd21         O23   2.425       .  S
C24          O28   1.266       .  A
C24         C428   1.487       .  S
C29         C374   1.549       .  S
C29         C392   1.537       .  S
C29         C482   1.535       .  S
C29         C588   1.548       .  S
O30          C33   1.264       .  A
O30         Cd35   2.485   1_554  S
C31          O40   1.273   1_556  A
C31          O36   1.267       .  A
C31          C45   1.495   1_655  S
O32          C38   1.263       .  A
O32         Cd35   2.489       .  S
C33          O41   1.271       .  A
C33         C356   1.503       .  S
C34          O39   1.262       .  A
C34          O37   1.264       .  A
C34         C390   1.488       .  S
Cd35         O42   2.582       .  S
Cd35         O41   2.567   1_556  S
Cd35         O40   2.541   1_556  S
Cd35         O36   2.511       .  S
Cd35         O39   2.502   1_556  S
Cd35         O37   2.521   1_556  S
C38          O42   1.269       .  A
C38         C534   1.497       .  S
C43         C320   1.543       .  S
C43         C336   1.533       .  S
C43         C426   1.540       .  S
C43         C554   1.546       .  S
O44          C47   1.271       .  A
O44         Cd49   2.537       .  S
C45          O54   1.270       .  A
C45          O50   1.265   1_556  A
O46          C52   1.264       .  A
O46         Cd49   2.446       .  S
C47          O55   1.265       .  A
C47         C300   1.496       .  S
C48          O53   1.265       .  A
C48          O51   1.267       .  A
C48         C462   1.487       .  S
Cd49         O56   2.502       .  S
Cd49         O55   2.494       .  S
Cd49         O54   2.543       .  S
Cd49         O50   2.532   1_556  S
Cd49         O53   2.484   1_556  S
Cd49         O51   2.529   1_556  S
C52          O56   1.268       .  A
C52         C338   1.480       .  S
C57         C246   1.544       .  S
C57         C266   1.536       .  S
C57         C282   1.533       .  S
C57         C570   1.544       .  S
O58          C61   1.272       .  A
O58         Cd63   2.532       .  S
C59          O68   1.270       .  A
C59          O64   1.261       .  A
C59          C75   1.492       .  S
O60          C66   1.268       .  A
O60         Cd63   2.538       .  S
C61          O69   1.267       .  A
C61         C516   1.504       .  S
C62          O67   1.265       .  A
C62          O65   1.265       .  A
C62         C284   1.474   1_545  S
Cd63         O70   2.494       .  S
Cd63         O69   2.527       .  S
Cd63         O68   2.569       .  S
Cd63         O64   2.506       .  S
Cd63         O67   2.455       .  S
Cd63         O65   2.478       .  S
C66          O70   1.265       .  A
C66         C228   1.491       .  S
C71         C176   1.549       .  S
C71         C192   1.543       .  S
C71         C210   1.535       .  S
C71         C410   1.542       .  S
O72          C75   1.266       .  A
O72         Cd77   2.532   1_545  S
C73          O82   1.269       .  A
C73          O78   1.265       .  A
C73         C446   1.500       .  S
O74          C80   1.267       .  A
O74         Cd77   2.528       .  S
C75          O83   1.270   1_545  A
C76          O81   1.263       .  A
C76          O79   1.269       .  A
C76         C212   1.486       .  S
Cd77         O84   2.533       .  S
Cd77         O83   2.517       .  S
Cd77         O82   2.550       .  S
Cd77         O78   2.505       .  S
Cd77         O81   2.429   1_565  S
Cd77         O79   2.533   1_565  S
C80          O84   1.268       .  A
C80         C156   1.501       .  S
C85         C138   1.535       .  S
C85         C194   1.536       .  S
C85         C230   1.545       .  S
C85         C354   1.548       .  S
O86          C89   1.271       .  A
O86         Cd91   2.551       .  S
C87          O96   1.274   1_545  A
C87          O92   1.266   1_554  A
C87         C101   1.496   1_554  S
O88          C94   1.272       .  A
O88         Cd91   2.510   1_545  S
C89          O97   1.264       .  A
C89         C372   1.503       .  S
C90          O95   1.264       .  A
C90          O93   1.270       .  A
C90         C248   1.492       .  S
Cd91         O98   2.409   1_565  S
Cd91         O97   2.531       .  S
Cd91         O96   2.551       .  S
Cd91         O92   2.511   1_564  S
Cd91         O95   2.476   1_554  S
Cd91         O93   2.569   1_554  S
C94          O98   1.265       .  A
C94         C140   1.481       .  S
C99         C120   1.540       .  S
C99         C158   1.546       .  S
C99         C264   1.548       .  S
C99         C302   1.549       .  S
O100        C103   1.271       .  A
O100       Cd105   2.583       .  S
C101        O110   1.274       .  A
C101        O106   1.268   1_556  A
O102        C108   1.266       .  A
O102       Cd105   2.493   1_554  S
C103        O111   1.263       .  A
C103        C318   1.504       .  S
C104        O109   1.269       .  A
C104        O107   1.264       .  A
C104        C122   1.484       .  S
Cd105       O112   2.540   1_556  S
Cd105       O111   2.464       .  S
Cd105       O110   2.533       .  S
Cd105       O106   2.521   1_556  S
Cd105       O109   2.523       .  S
Cd105       O107   2.450       .  S
C108        O112   1.268       .  A
C108        C174   1.490       .  S
C113        C121   1.485       .  S
C113        C114   1.400       .  A
C113        C118   1.406       .  A
C114        C115   1.396       .  A
C114        H123   1.084       .  S
C115        C116   1.412       .  A
C115        H124   1.080       .  S
C116        C119   1.501       .  S
C116        C117   1.408       .  A
C117        C118   1.407       .  A
C117        H125   1.084       .  S
C118        H126   1.082       .  S
C119        H127   1.086       .  S
C119        C120   1.352       .  D
C120        H128   1.082       .  S
C121        H129   1.088       .  S
C121        C122   1.347   1_565  D
C122        H130   1.086   1_545  S
C131        C139   1.475       .  S
C131        C132   1.399       .  A
C131        C136   1.403       .  A
C132        C133   1.396       .  A
C132        H141   1.084       .  S
C133        C134   1.404       .  A
C133        H142   1.083       .  S
C134        C137   1.490       .  S
C134        C135   1.411       .  A
C135        C136   1.404       .  A
C135        H143   1.082       .  S
C136        H144   1.083       .  S
C137        H145   1.086       .  S
C137        C138   1.350       .  D
C138        H146   1.084       .  S
C139        H147   1.087       .  S
C139        C140   1.346       .  D
C140        H148   1.086       .  S
C149        C157   1.493       .  S
C149        C150   1.401       .  A
C149        C154   1.408       .  A
C150        C151   1.400       .  A
C150        H159   1.082       .  S
C151        C152   1.406       .  A
C151        H160   1.083       .  S
C152        C155   1.510       .  S
C152        C153   1.416       .  A
C153        C154   1.416       .  A
C153        H161   1.081       .  S
C154        H162   1.083       .  S
C155        H163   1.087       .  S
C155        C156   1.355       .  D
C156        H164   1.084       .  S
C157        H165   1.087       .  S
C157        C158   1.359       .  D
C158        H166   1.086       .  S
C167        C175   1.504       .  S
C167        C168   1.408       .  A
C167        C172   1.411       .  A
C168        C169   1.400       .  A
C168        H177   1.083       .  S
C169        C170   1.403       .  A
C169        H178   1.083       .  S
C170        C173   1.501       .  S
C170        C171   1.410       .  A
C171        C172   1.413       .  A
C171        H179   1.083       .  S
C172        H180   1.082       .  S
C173        H181   1.086       .  S
C173        C174   1.354       .  D
C174        H182   1.085       .  S
C175        H183   1.084       .  S
C175        C176   1.360       .  D
C176        H184   1.085       .  S
C185        C193   1.491       .  S
C185        C186   1.408       .  A
C185        C190   1.404       .  A
C186        C187   1.411       .  A
C186        H195   1.083       .  S
C187        C188   1.409       .  A
C187        H196   1.081       .  S
C188        C191   1.490       .  S
C188        C189   1.404       .  A
C189        C190   1.391       .  A
C189        H197   1.084       .  S
C190        H198   1.083       .  S
C191        H199   1.085       .  S
C191        C192   1.356       .  D
C192        H200   1.085       .  S
C193        H201   1.086       .  S
C193        C194   1.352       .  D
C194        H202   1.088       .  S
C203        C211   1.493       .  S
C203        C204   1.410       .  A
C203        C208   1.403       .  A
C204        C205   1.408       .  A
C204        H213   1.080       .  S
C205        C206   1.407       .  A
C205        H214   1.085       .  S
C206        C209   1.496       .  S
C206        C207   1.408       .  A
C207        C208   1.394       .  A
C207        H215   1.080       .  S
C208        H216   1.085       .  S
C209        H217   1.087       .  S
C209        C210   1.350       .  D
C210        H218   1.086       .  S
C211        H219   1.089       .  S
C211        C212   1.350       .  D
C212        H220   1.086       .  S
C221        C229   1.491       .  S
C221        C222   1.405       .  A
C221        C226   1.405       .  A
C222        C223   1.403       .  A
C222        H231   1.084       .  S
C223        C224   1.409       .  A
C223        H232   1.081       .  S
C224        C227   1.505       .  S
C224        C225   1.411       .  A
C225        C226   1.409       .  A
C225        H233   1.083       .  S
C226        H234   1.083       .  S
C227        H235   1.087       .  S
C227        C228   1.353       .  D
C228        H236   1.084       .  S
C229        H237   1.087       .  S
C229        C230   1.361       .  D
C230        H238   1.086       .  S
C239        C247   1.504       .  S
C239        C240   1.410       .  A
C239        C244   1.406       .  A
C240        C241   1.413       .  A
C240        H249   1.083       .  S
C241        C242   1.410       .  A
C241        H250   1.081       .  S
C242        C245   1.503       .  S
C242        C243   1.407       .  A
C243        C244   1.401       .  A
C243        H251   1.083       .  S
C244        H252   1.083       .  S
C245        H253   1.087       .  S
C245        C246   1.359       .  D
C246        H254   1.084       .  S
C247        H255   1.086       .  S
C247        C248   1.353       .  D
C248        H256   1.086       .  S
C257        C265   1.496       .  S
C257        C258   1.410       .  A
C257        C262   1.403       .  A
C258        C259   1.402       .  A
C258        H267   1.082       .  S
C259        C260   1.404       .  A
C259        H268   1.083       .  S
C260        C263   1.497       .  S
C260        C261   1.410       .  A
C261        C262   1.402       .  A
C261        H269   1.081       .  S
C262        H270   1.084       .  S
C263        H271   1.087       .  S
C263        C264   1.353       .  D
C264        H272   1.085       .  S
C265        H273   1.087       .  S
C265        C266   1.348       .  D
C266        H274   1.085       .  S
C275        C283   1.481       .  S
C275        C276   1.403       .  A
C275        C280   1.405       .  A
C276        C277   1.399       .  A
C276        H285   1.083       .  S
C277        C278   1.401       .  A
C277        H286   1.083       .  S
C278        C281   1.486       .  S
C278        C279   1.410       .  A
C279        C280   1.399       .  A
C279        H287   1.083       .  S
C280        H288   1.083       .  S
C281        H289   1.086       .  S
C281        C282   1.345       .  D
C282        H290   1.086       .  S
C283        H291   1.087   1_565  S
C283        C284   1.343       .  D
C284        H292   1.086       .  S
C293        C301   1.512       .  S
C293        C294   1.410       .  A
C293        C298   1.413       .  A
C294        C295   1.406       .  A
C294        H303   1.080       .  S
C295        C296   1.405       .  A
C295        H304   1.083       .  S
C296        C299   1.497       .  S
C296        C297   1.406       .  A
C297        C298   1.411       .  A
C297        H305   1.083       .  S
C298        H306   1.083       .  S
C299        H307   1.087       .  S
C299        C300   1.353       .  D
C300        H308   1.086       .  S
C301        H309   1.082       .  S
C301        C302   1.361       .  D
C302        H310   1.085       .  S
C311        C319   1.501       .  S
C311        C312   1.400       .  A
C311        C316   1.414       .  A
C312        C313   1.395       .  A
C312        H321   1.083       .  S
C313        C314   1.405       .  A
C313        H322   1.084       .  S
C314        C317   1.505       .  S
C314        C315   1.414       .  A
C315        C316   1.421       .  A
C315        H323   1.081       .  S
C316        H324   1.083       .  S
C317        H325   1.087       .  S
C317        C318   1.356       .  D
C318        H326   1.086       .  S
C319        H327   1.087       .  S
C319        C320   1.355       .  D
C320        H328   1.086       .  S
C329        C337   1.492       .  S
C329        C330   1.407       .  A
C329        C334   1.411       .  A
C330        C331   1.397       .  A
C330        H339   1.084       .  S
C331        C332   1.399       .  A
C331        H340   1.083       .  S
C332        C335   1.475       .  S
C332        C333   1.401       .  A
C333        C334   1.402       .  A
C333        H341   1.083       .  S
C334        H342   1.079       .  S
C335        H343   1.086       .  S
C335        C336   1.346       .  D
C336        H344   1.088       .  S
C337        H345   1.088       .  S
C337        C338   1.349       .  D
C338        H346   1.083       .  S
C347        C355   1.509       .  S
C347        C348   1.414       .  A
C347        C352   1.405       .  A
C348        C349   1.419       .  A
C348        H357   1.081       .  S
C349        C350   1.414       .  A
C349        H358   1.082       .  S
C350        C353   1.507       .  S
C350        C351   1.404       .  A
C351        C352   1.398       .  A
C351        H359   1.083       .  S
C352        H360   1.084       .  S
C353        H361   1.085       .  S
C353        C354   1.359       .  D
C354        H362   1.085       .  S
C355        H363   1.088       .  S
C355        C356   1.357       .  D
C356        H364   1.085       .  S
C365        C373   1.500       .  S
C365        C366   1.406       .  A
C365        C370   1.407       .  A
C366        C367   1.413       .  A
C366        H375   1.083       .  S
C367        C368   1.412       .  A
C367        H376   1.083       .  S
C368        C371   1.511       .  S
C368        C369   1.409       .  A
C369        C370   1.409       .  A
C369        H377   1.082       .  S
C370        H378   1.083       .  S
C371        H379   1.086       .  S
C371        C372   1.360       .  D
C372        H380   1.085       .  S
C373        H381   1.086       .  S
C373        C374   1.361       .  D
C374        H382   1.086       .  S
C383        C391   1.496       .  S
C383        C384   1.404       .  A
C383        C388   1.407       .  A
C384        C385   1.407       .  A
C384        H393   1.083       .  S
C385        C386   1.412       .  A
C385        H394   1.081       .  S
C386        C389   1.499       .  S
C386        C387   1.406       .  A
C387        C388   1.400       .  A
C387        H395   1.083       .  S
C388        H396   1.083       .  S
C389        H397   1.086       .  S
C389        C390   1.352       .  D
C390        H398   1.083       .  S
C391        H399   1.086       .  S
C391        C392   1.350       .  D
C392        H400   1.086       .  S
C401        C409   1.495       .  S
C401        C402   1.401       .  A
C401        C406   1.409       .  A
C402        C403   1.400       .  A
C402        H411   1.083       .  S
C403        C404   1.407       .  A
C403        H412   1.084       .  S
C404        C407   1.505       .  S
C404        C405   1.413       .  A
C405        C406   1.415       .  A
C405        H413   1.081       .  S
C406        H414   1.083       .  S
C407        H415   1.088       .  S
C407        C408   1.354       .  D
C408        H416   1.085       .  S
C409        H417   1.087       .  S
C409        C410   1.355       .  D
C410        H418   1.087       .  S
C419        C427   1.497       .  S
C419        C420   1.412       .  A
C419        C424   1.406       .  A
C420        C421   1.406       .  A
C420        H429   1.081       .  S
C421        C422   1.402       .  A
C421        H430   1.083       .  S
C422        C425   1.480       .  S
C422        C423   1.402       .  A
C423        C424   1.400       .  A
C423        H431   1.083       .  S
C424        H432   1.084       .  S
C425        H433   1.084       .  S
C425        C426   1.354       .  D
C426        H434   1.087       .  S
C427        H435   1.088       .  S
C427        C428   1.350       .  D
C428        H436   1.085       .  S
C437        C445   1.504       .  S
C437        C438   1.411       .  A
C437        C442   1.405       .  A
C438        C439   1.415       .  A
C438        H447   1.083       .  S
C439        C440   1.411       .  A
C439        H448   1.082       .  S
C440        C443   1.506       .  S
C440        C441   1.407       .  A
C441        C442   1.399       .  A
C441        H449   1.082       .  S
C442        H450   1.082       .  S
C443        H451   1.084       .  S
C443        C444   1.358       .  D
C444        H452   1.086       .  S
C445        H453   1.086       .  S
C445        C446   1.354       .  D
C446        H454   1.084       .  S
C455        C463   1.498       .  S
C455        C456   1.407       .  A
C455        C460   1.408       .  A
C456        C457   1.399       .  A
C456        H465   1.083       .  S
C457        C458   1.405       .  A
C457        H466   1.083       .  S
C458        C461   1.500       .  S
C458        C459   1.410       .  A
C459        C460   1.411       .  A
C459        H467   1.082       .  S
C460        H468   1.082       .  S
C461        H469   1.086       .  S
C461        C462   1.353       .  D
C462        H470   1.085       .  S
C463        H471   1.087       .  S
C463        C464   1.360       .  D
C464        H472   1.084       .  S
C473        C481   1.489       .  S
C473        C474   1.406       .  A
C473        C478   1.405       .  A
C474        C475   1.400   1_655  A
C474        H483   1.082       .  S
C475        C476   1.404       .  A
C475        H484   1.083       .  S
C476        C479   1.488       .  S
C476        C477   1.407       .  A
C477        C478   1.401   1_455  A
C477        H485   1.082       .  S
C478        H486   1.084       .  S
C479        H487   1.087       .  S
C479        C480   1.351       .  D
C480        H488   1.086       .  S
C481        H489   1.087       .  S
C481        C482   1.351       .  D
C482        H490   1.085       .  S
C491        C499   1.483       .  S
C491        C492   1.408       .  A
C491        C496   1.403       .  A
C492        C493   1.401       .  A
C492        H501   1.082       .  S
C493        C494   1.407       .  A
C493        H502   1.083       .  S
C494        C497   1.482       .  S
C494        C495   1.400       .  A
C495        C496   1.397       .  A
C495        H503   1.083       .  S
C496        H504   1.084       .  S
C497        H505   1.086       .  S
C497        C498   1.347       .  D
C498        H506   1.087       .  S
C499        H507   1.088       .  S
C499        C500   1.346       .  D
C500        H508   1.086       .  S
C509        C517   1.516       .  S
C509        C510   1.411       .  A
C509        C514   1.410       .  A
C510        C511   1.412       .  A
C510        H519   1.082       .  S
C511        C512   1.411       .  A
C511        H520   1.081       .  S
C512        C515   1.518       .  S
C512        C513   1.412       .  A
C513        C514   1.411       .  A
C513        H521   1.082       .  S
C514        H522   1.082       .  S
C515        H523   1.085       .  S
C515        C516   1.362       .  D
C516        H524   1.081       .  S
C517        H525   1.086       .  S
C517        C518   1.363       .  D
C518        H526   1.084       .  S
C527        C535   1.501       .  S
C527        C528   1.408       .  A
C527        C532   1.407       .  A
C528        C529   1.410       .  A
C528        H537   1.083       .  S
C529        C530   1.414       .  A
C529        H538   1.081       .  S
C530        C533   1.510       .  S
C530        C531   1.407       .  A
C531        C532   1.406       .  A
C531        H539   1.084       .  S
C532        H540   1.083       .  S
C533        H541   1.087       .  S
C533        C534   1.354       .  D
C534        H542   1.085       .  S
C535        H543   1.083       .  S
C535        C536   1.363       .  D
C536        H544   1.086       .  S
C545        C553   1.497       .  S
C545        C546   1.403       .  A
C545        C550   1.411       .  A
C546        C547   1.393   1_455  A
C546        H555   1.084       .  S
C547        C548   1.403       .  A
C547        H556   1.084       .  S
C548        C551   1.499       .  S
C548        C549   1.413       .  A
C549        C550   1.416   1_655  A
C549        H557   1.081       .  S
C550        H558   1.082       .  S
C551        H559   1.086       .  S
C551        C552   1.357       .  D
C552        H560   1.084       .  S
C553        H561   1.085       .  S
C553        C554   1.358       .  D
C554        H562   1.086       .  S
C563        C571   1.499       .  S
C563        C564   1.412       .  A
C563        C568   1.403       .  A
C564        C565   1.416       .  A
C564        H573   1.083       .  S
C565        C566   1.410       .  A
C565        H574   1.082       .  S
C566        C569   1.498       .  S
C566        C567   1.404       .  A
C567        C568   1.398       .  A
C567        H575   1.084       .  S
C568        H576   1.083       .  S
C569        H577   1.088       .  S
C569        C570   1.356       .  D
C570        H578   1.086       .  S
C571        H579   1.087       .  S
C571        C572   1.351       .  D
C572        H580   1.085       .  S
C581        C589   1.509       .  S
C581        C582   1.410       .  A
C581        C586   1.410       .  A
C582        C583   1.409       .  A
C582        H591   1.082       .  S
C583        C584   1.408       .  A
C583        H592   1.083       .  S
C584        C587   1.502       .  S
C584        C585   1.407       .  A
C585        C586   1.410       .  A
C585        H593   1.083       .  S
C586        H594   1.083       .  S
C587        H595   1.087       .  S
C587        C588   1.361       .  D
C588        H596   1.086       .  S
C589        H597   1.086       .  S
C589        C590   1.356       .  D
C590        H598   1.085       .  S
C599        C607   1.489       .  S
C599        C600   1.408       .  A
C599        C604   1.403       .  A
C600        C601   1.408       .  A
C600        H609   1.082       .  S
C601        C602   1.412       .  A
C601        H610   1.081       .  S
C602        C605   1.491       .  S
C602        C603   1.401       .  A
C603        C604   1.394       .  A
C603        H611   1.084       .  S
C604        H612   1.083       .  S
C605        H613   1.086       .  S
C605        C606   1.350       .  D
C606        H614   1.085       .  S
C607        H615   1.087       .  S
C607        C608   1.350       .  D
C608        H616   1.084       .  S
