geometry optimzed in LAMMPS
_audit_creation_date              2020-12-01 
_audit_creation_method            'lammps2cif' 
_symmetry_space_group_name_H-M    'P1' 
_symmetry_Int_Tables_number       1 
_symmetry_cell_setting            triclinic 
loop_ 
_symmetry_equiv_pos_as_xyz 
  x,y,z 
_cell_length_a                    45.3021106 
_cell_length_b                    45.29735856001028 
_cell_length_c                    45.218989302511986 
_cell_angle_alpha                 89.74338514649409 
_cell_angle_beta                  90.08720465138563 
_cell_angle_gamma                 90.13540334910547 
loop_ 
_atom_site_label 
_atom_site_type_symbol 
_atom_site_fract_x 
_atom_site_fract_y 
_atom_site_fract_z 
_atom_site_charge 
N1          N  0.06008801  0.48780181  0.21229646    -0.07000
N2          N  0.07658193  0.47819417  0.19032429    -0.59100
N3          N  0.06110124  0.01581809  0.28054550    -0.06700
N4          N  0.07861961  0.02556023  0.30177902    -0.61300
N5          N  0.06155735  0.48641506  0.28017419    -0.06300
N6          N  0.07891174  0.47562452  0.30097422    -0.59100
N7          N  0.06049253  0.01596384  0.21233513    -0.06000
N8          N  0.07649159  0.02604281  0.19005305    -0.61600
C9          C  0.08589220  0.00130378  0.17626145     0.95200
C10         C  0.08974302  0.49986197  0.31458516     0.94900
N11         N  0.48271996  0.06538203  0.28093222    -0.07200
N12         N  0.47297329  0.08224342  0.30258846    -0.59700
N13         N  0.01179423  0.06447057  0.21262861    -0.05300
N14         N  0.02224193  0.08020351  0.19042828    -0.61000
N15         N  0.48230351  0.06453638  0.21274281    -0.07200
N16         N  0.47239994  0.08018764  0.19015796    -0.60000
N17         N  0.01203832  0.06512872  0.28048908    -0.05000
N18         N  0.02248284  0.08178593  0.30197696    -0.61000
Mn19       Mn  0.03702954  0.04108640  0.24660374     1.18400
C20         C  0.49789583  0.09228400  0.31586825     0.97200
C21         C  0.99777616  0.09000954  0.17640517     0.97900
N22         N  0.01240250  0.43769198  0.28075941    -0.07200
N23         N  0.02302000  0.42162388  0.30269511    -0.63600
N24         N  0.48153465  0.43810078  0.21375600    -0.06000
N25         N  0.47114383  0.42065477  0.19278353    -0.64200
N26         N  0.01103686  0.43865609  0.21269961    -0.06800
N27         N  0.02107522  0.42251935  0.19073857    -0.63800
N28         N  0.48330656  0.43801380  0.28188998    -0.05600
N29         N  0.47382408  0.42180396  0.30425680    -0.64500
Mn30       Mn  0.03688074  0.46194959  0.24642656     1.10700
C31         C  0.49890658  0.41183364  0.31714830     0.98500
C32         C  0.99647376  0.41211354  0.17737154     0.98500
N33         N  0.43258243  0.01582226  0.21329246    -0.06800
N34         N  0.41577939  0.02563016  0.19145901    -0.62100
N35         N  0.43412516  0.48670986  0.28350766    -0.06100
N36         N  0.41795632  0.47630431  0.30547745    -0.58900
N37         N  0.43351433  0.01626262  0.28155580    -0.07400
N38         N  0.41777645  0.02659263  0.30372295    -0.61700
N39         N  0.43258564  0.48724401  0.21559971    -0.06400
N40         N  0.41592525  0.47687184  0.19411528    -0.58900
Mn41       Mn  0.45699938  0.04129418  0.24710147     1.20200
Mn42       Mn  0.45717916  0.46184149  0.24869681     1.10100
Cl43       Cl  0.99699504  0.00155581  0.24685082    -0.86900
C44         C  0.40557190  0.00072878  0.17832870     0.95500
C45         C  0.40806962  0.50076763  0.31939671     0.95300
N46         N  0.48416709  0.21533289  0.06064571    -0.07000
N47         N  0.47501200  0.19289863  0.07689248    -0.59100
N48         N  0.01113910  0.28539677  0.06129485    -0.06700
N49         N  0.02058113  0.30767234  0.07756891    -0.61300
N50         N  0.48172218  0.28301051  0.06220009    -0.06300
N51         N  0.47074947  0.30343694  0.07972679    -0.59100
N52         N  0.01351024  0.21757118  0.06092926    -0.06000
N53         N  0.02471512  0.19623024  0.07733479    -0.61600
C54         C  0.00069990  0.18179664  0.08767772     0.95200
C55         C  0.49481034  0.31749490  0.09051262     0.94900
N56         N  0.06007243  0.28642158  0.48249369    -0.07200
N57         N  0.07634538  0.30859603  0.47264121    -0.59700
N58         N  0.06162020  0.21909326  0.01123995    -0.05300
N59         N  0.07903416  0.19781048  0.02094194    -0.61000
N60         N  0.06113478  0.21867690  0.48226830    -0.07200
N61         N  0.07805408  0.19755171  0.47181569    -0.60000
N62         N  0.05945358  0.28663193  0.01162470    -0.05000
N63         N  0.07595742  0.30811130  0.02209643    -0.61000
Mn64       Mn  0.03711963  0.25220045  0.03696061     1.18400
C65         C  0.08617845  0.32182364  0.49764343     0.97200
C66         C  0.08895266  0.18420474  0.49628408     0.97900
N67         N  0.43268584  0.28260973  0.01306319    -0.07200
N68         N  0.41535565  0.30328475  0.02381457    -0.63600
N69         N  0.43398582  0.21678015  0.48366493    -0.06000
N70         N  0.41649091  0.19580326  0.47349456    -0.64200
N71         N  0.43442055  0.21487275  0.01198396    -0.06800
N72         N  0.41752954  0.19328676  0.02201402    -0.63800
N73         N  0.43361226  0.28470490  0.48418371    -0.05600
N74         N  0.41615084  0.30599264  0.47454115    -0.64500
Mn75       Mn  0.45761255  0.24886551  0.03760909     1.10700
C76         C  0.40567586  0.31832733  0.49964321     0.98500
C77         C  0.40648160  0.18205387  0.49818321     0.98500
N78         N  0.01148144  0.21771454  0.43345036    -0.06800
N79         N  0.02139922  0.19607588  0.41667534    -0.62100
N80         N  0.48217144  0.28572502  0.43438518    -0.06100
N81         N  0.47188252  0.30780409  0.41827683    -0.58900
N82         N  0.01087546  0.28575835  0.43380143    -0.07400
N83         N  0.02080273  0.30795029  0.41766732    -0.61700
N84         N  0.48253129  0.21767916  0.43407525    -0.06400
N85         N  0.47213688  0.19598399  0.41769027    -0.58900
Mn86       Mn  0.03661417  0.25211280  0.45723368     1.20200
Mn87       Mn  0.45740081  0.25126765  0.45835911     1.10100
Cl88       Cl  0.49759983  0.25123628  0.49769283    -0.86900
C89         C  0.99655516  0.18250772  0.40680522     0.95500
C90         C  0.49648325  0.32162709  0.40825616     0.95300
N91         N  0.28156107  0.43730573  0.48372794    -0.07000
N92         N  0.30283337  0.42022577  0.47359696    -0.59100
N93         N  0.21389463  0.43663241  0.01203222    -0.06700
N94         N  0.19182966  0.42025534  0.02181855    -0.61300
N95         N  0.21376164  0.43691562  0.48308978    -0.06300
N96         N  0.19189631  0.42092649  0.47241550    -0.59100
N97         N  0.28171090  0.43692614  0.01268059    -0.06000
N98         N  0.30267605  0.41947267  0.02299739    -0.61600
C99         C  0.31563710  0.40916129  0.49834542     0.95200
C100        C  0.17791914  0.41071133  0.49679529     0.94900
N101        N  0.21110168  0.01380463  0.05915872    -0.07200
N102        N  0.18869612  0.02321784  0.07516087    -0.59700
N103        N  0.28120469  0.48648207  0.06154701    -0.05300
N104        N  0.30302419  0.47686926  0.07839887    -0.61000
N105        N  0.27910801  0.01546465  0.06034076    -0.07200
N106        N  0.30030972  0.02608517  0.07726565    -0.60000
N107        N  0.21305179  0.48569371  0.06105406    -0.05000
N108        N  0.19083163  0.47552557  0.07703730    -0.61000
Mn109      Mn  0.24748890  0.46070030  0.03763668     1.18400
C110        C  0.17544676  0.99811530  0.08475074     0.97200
C111        C  0.31609422  0.50190598  0.08833120     0.97900
N112        N  0.21311430  0.48633360  0.43451866    -0.07200
N113        N  0.19191293  0.47600763  0.41735435    -0.63600
N114        N  0.28092628  0.01747712  0.43379310    -0.06000
N115        N  0.30273713  0.02848052  0.41786213    -0.64200
N116        N  0.28104688  0.48754725  0.43511922    -0.06800
N117        N  0.30315522  0.47802071  0.41882366    -0.63800
N118        N  0.21293488  0.01576655  0.43328712    -0.05600
N119        N  0.19091480  0.02570058  0.41696927    -0.64500
Mn120      Mn  0.24747510  0.46137387  0.45841001     1.10700
C121        C  0.17815730  0.00091179  0.40632533     0.98500
C122        C  0.31623025  0.50304712  0.40882603     0.98500
N123        N  0.27862080  0.06558711  0.01144598    -0.06800
N124        N  0.29955772  0.08332034  0.02141505    -0.62100
N125        N  0.21147904  0.06421730  0.48277559    -0.06100
N126        N  0.19020659  0.08153669  0.47292599    -0.58900
N127        N  0.21095738  0.06371764  0.01111291    -0.07400
N128        N  0.18982591  0.08068366  0.02151954    -0.61700
N129        N  0.27895208  0.06599811  0.48284982    -0.06400
N130        N  0.29935763  0.08400274  0.47245243    -0.58900
Mn131      Mn  0.24501166  0.04024174  0.03627129     1.20200
Mn132      Mn  0.24600191  0.04144851  0.45747414     1.10100
Cl133      Cl  0.24667958  0.50053705  0.49854619    -0.86900
C134        C  0.31238488  0.09493591  0.49695940     0.95500
C135        C  0.17715566  0.09159713  0.49787309     0.95300
C136        C  0.33960859  0.38682572  0.49860319    -0.01000
C137        C  0.34178977  0.36748206  0.02298654    -0.12900
C138        C  0.36250819  0.34460942  0.02372852     0.01200
C139        C  0.38323909  0.34209443  0.50021806    -0.01100
C140        C  0.38131951  0.36155303  0.47608130    -0.12900
C141        C  0.35973869  0.38363665  0.47497287     0.01100
H142        H  0.32629854  0.36958693  0.04111616     0.14100
H143        H  0.39678148  0.35951713  0.45795871     0.14100
C144        C  0.35923329  0.40288153  0.44948840     0.35700
C145        C  0.36130064  0.32397945  0.04815343     0.35600
N146        N  0.35898652  0.41815891  0.42892913    -0.44600
N147        N  0.36016981  0.30724688  0.06754059    -0.44600
C148        C  0.33666030  0.11697674  0.49657102    -0.01000
C149        C  0.35433607  0.11889002  0.02110784    -0.12900
C150        C  0.37778495  0.13901559  0.02183912     0.01200
C151        C  0.38346247  0.15862885  0.49795458    -0.01100
C152        C  0.36552038  0.15585169  0.47277144    -0.12900
C153        C  0.34230980  0.13542351  0.47184559     0.01100
H154        H  0.35011272  0.10508505  0.04031726     0.14100
H155        H  0.36916054  0.17019247  0.45384530     0.14100
C156        C  0.32411405  0.13493308  0.44559733     0.35700
C157        C  0.39557323  0.13981182  0.04823115     0.35600
N158        N  0.30958603  0.13476075  0.42452314    -0.44600
N159        N  0.40953667  0.13999522  0.06963581    -0.44600
C160        C  0.10754866  0.34664245  0.49818388    -0.01000
C161        C  0.11575900  0.35991625  0.47129842    -0.12900
C162        C  0.13774901  0.38163885  0.47021474     0.01200
C163        C  0.15248972  0.39007666  0.49648748    -0.01100
C164        C  0.14438004  0.37698040  0.02348975    -0.12900
C165        C  0.12190711  0.35586966  0.02468004     0.01100
H166        H  0.10516389  0.35313773  0.45089668     0.14100
H167        H  0.15537143  0.38321844  0.04384376     0.14100
C168        C  0.11404565  0.34437006  0.05347700     0.35700
C169        C  0.14432433  0.39482965  0.44182834     0.35600
N170        N  0.10774995  0.33538523  0.07663366    -0.44600
N171        N  0.14934771  0.40542386  0.41903709    -0.44600
C172        C  0.15332456  0.11405128  0.49812830    -0.01000
C173        C  0.14381621  0.12580949  0.47097678    -0.12900
C174        C  0.12263163  0.14815853  0.46963257     0.01200
C175        C  0.11045068  0.15951009  0.49605020    -0.01100
C176        C  0.11867741  0.14709067  0.02239493    -0.12900
C177        C  0.13948254  0.12434035  0.02358167     0.01100
H178        H  0.15331145  0.11786759  0.45052119     0.14100
H179        H  0.10883420  0.15468060  0.04284090     0.14100
C180        C  0.14636741  0.11204013  0.05228783     0.35700
C181        C  0.11437768  0.15902194  0.44070530     0.35600
N182        N  0.15171945  0.10236766  0.07540973    -0.44600
N183        N  0.10783840  0.16761381  0.41746242    -0.47000
C184        C  0.38671852  0.50077676  0.34441759    -0.01000
C185        C  0.37315828  0.02938156  0.34994667    -0.12900
C186        C  0.35123055  0.03089402  0.37163810     0.01200
C187        C  0.34154950  0.50327482  0.38785574    -0.01100
C188        C  0.35251105  0.47607459  0.37794798    -0.12900
C189        C  0.37505110  0.47453437  0.35689003     0.01100
H190        H  0.37868804  0.04921746  0.33760813     0.14100
H191        H  0.34307947  0.45569452  0.38628446     0.14100
C192        C  0.38542016  0.44558577  0.34868237     0.35700
C193        C  0.33760015  0.05920266  0.37666654     0.35600
N194        N  0.39367465  0.42228713  0.34238477    -0.44600
N195        N  0.32684225  0.08199003  0.38061204    -0.44600
C196        C  0.15386157  0.00065978  0.38437745    -0.01000
C197        C  0.15133573  0.47561583  0.36668197    -0.12900
C198        C  0.13073300  0.47493248  0.34362140     0.01200
C199        C  0.11157675  0.49914473  0.33903390    -0.01100
C200        C  0.11345956  0.02417433  0.35762436    -0.12900
C201        C  0.13437487  0.02472097  0.38047459     0.01100
H202        H  0.16623954  0.45710772  0.36951232     0.14100
H203        H  0.09866872  0.04277219  0.35477578     0.14100
C204        C  0.13460893  0.04983340  0.40002839     0.35700
C205        C  0.13120725  0.44984520  0.32403205     0.35600
N206        N  0.13457375  0.06991561  0.41575538    -0.44600
N207        N  0.13185457  0.42982628  0.30823370    -0.44600
C208        C  0.15032191  0.99766542  0.10594273    -0.01000
C209        C  0.13560630  0.02428199  0.11188055    -0.12900
C210        C  0.11395856  0.02603734  0.13391859     0.01200
C211        C  0.10657826  0.00067305  0.15073942    -0.01100
C212        C  0.11456155  0.47671404  0.13817281    -0.12900
C213        C  0.13587057  0.47513234  0.11582205     0.01100
H214        H  0.14138215  0.04406659  0.09959330     0.14100
H215        H  0.10306879  0.45672461  0.14472639     0.14100
C216        C  0.14041546  0.44699888  0.10167560     0.35700
C217        C  0.09996065  0.05422921  0.13860879     0.35600
N218        N  0.14375510  0.42441982  0.09029882    -0.44600
N219        N  0.08890580  0.07694170  0.14215820    -0.44600
C220        C  0.38394526  0.00046075  0.15341656    -0.01000
C221        C  0.37236009  0.02748082  0.14347962    -0.12900
C222        C  0.35044495  0.02869795  0.12161977     0.01200
C223        C  0.34076737  0.50243852  0.11006878    -0.01100
C224        C  0.35184315  0.47544057  0.12059658    -0.12900
C225        C  0.37344633  0.47437729  0.14272614     0.01100
H226        H  0.37998995  0.04791733  0.15327270     0.14100
H227        H  0.34337954  0.45487520  0.11174127     0.14100
C228        C  0.38387779  0.44560043  0.15177385     0.35700
C229        C  0.33976464  0.05751136  0.11302502     0.35600
N230        N  0.39222150  0.42246849  0.15879100    -0.44600
N231        N  0.33134668  0.08068887  0.10626098    -0.44600
C232        C  0.99630788  0.15770220  0.38520076    -0.01000
C233        C  0.02340009  0.14639621  0.37532197    -0.12900
C234        C  0.02468444  0.12467902  0.35336166     0.01200
C235        C  0.49820870  0.11367715  0.34088098    -0.01100
C236        C  0.47112586  0.12385703  0.35194465    -0.12900
C237        C  0.46987947  0.14540550  0.37405934     0.01100
H238        H  0.04386700  0.15485555  0.38447242     0.14100
H239        H  0.45062911  0.11524370  0.34301173     0.14100
C240        C  0.44102997  0.15448498  0.38403329     0.35700
C241        C  0.05352003  0.11447812  0.34452106     0.35600
N242        N  0.41784852  0.16162226  0.39197091    -0.44600
N243        N  0.07669791  0.10638855  0.33755621    -0.44600
C244        C  0.49680995  0.34692990  0.38724646    -0.01000
C245        C  0.02347236  0.35652157  0.37575368    -0.12900
C246        C  0.02507711  0.37849687  0.35400205     0.01200
C247        C  0.49933130  0.39093157  0.34255404    -0.01100
C248        C  0.47242477  0.38352641  0.35615141    -0.12900
C249        C  0.47096300  0.36207423  0.37847465     0.01100
H250        H  0.04378603  0.34650819  0.38354128     0.14100
H251        H  0.45224864  0.39435510  0.34917206     0.14100
C252        C  0.44263698  0.35650837  0.39198502     0.35700
C253        C  0.05402634  0.38741181  0.34402378     0.35600
N254        N  0.41986461  0.35231548  0.40278833    -0.44600
N255        N  0.07729969  0.39459924  0.33627211    -0.44600
C256        C  0.49400336  0.34209974  0.11231278    -0.01000
C257        C  0.02186327  0.35761148  0.11832704    -0.12900
C258        C  0.02297314  0.38006395  0.13950131     0.01200
C259        C  0.99656353  0.39069657  0.15238556    -0.01100
C260        C  0.46901590  0.37340107  0.14830769    -0.12900
C261        C  0.46795734  0.35072128  0.12729742     0.01100
H262        H  0.04240377  0.34925988  0.10939222     0.14100
H263        H  0.44895958  0.37928590  0.15992047     0.14100
C264        C  0.43982567  0.33653836  0.12226438     0.35700
C265        C  0.05170131  0.39159825  0.14722836     0.35600
N266        N  0.41716233  0.32534780  0.11837642    -0.44600
N267        N  0.07479492  0.40083079  0.15316357    -0.44600
C268        C  0.00141360  0.15654710  0.10852403    -0.01000
C269        C  0.97472101  0.14204533  0.11464938    -0.12900
C270        C  0.97312242  0.11920163  0.13535288     0.01200
C271        C  0.99860091  0.11112390  0.15141515    -0.01100
C272        C  0.02560759  0.12483518  0.14456123    -0.12900
C273        C  0.02735022  0.14714959  0.12319956     0.01100
H274        H  0.45461318  0.14663795  0.10186999     0.14100
H275        H  0.04544891  0.11873291  0.15651516     0.14100
C276        C  0.05591684  0.16031735  0.11779574     0.35700
C277        C  0.44495221  0.10257616  0.13804053     0.35600
N278        N  0.07897494  0.17058757  0.11367387    -0.44600
N279        N  0.42252980  0.09052430  0.14044164    -0.44600
N280        N  0.06041319  0.48689822  0.71391122    -0.07000
N281        N  0.07689191  0.47712932  0.69200517    -0.59100
N282        N  0.06102062  0.01637141  0.78007478    -0.06700
N283        N  0.07846806  0.02616742  0.80133636    -0.61300
N284        N  0.06090409  0.48606021  0.78170165    -0.06300
N285        N  0.07808223  0.47531812  0.80263035    -0.59100
N286        N  0.05998895  0.01613590  0.71189188    -0.06000
N287        N  0.07598222  0.02613056  0.68957022    -0.61600
C288        C  0.08541088  0.00135247  0.67588395     0.95200
C289        C  0.08887698  0.49956418  0.81617658     0.94900
N290        N  0.48367506  0.06571229  0.78072722    -0.07200
N291        N  0.47403341  0.08237770  0.80255300    -0.59700
N292        N  0.01126838  0.06463309  0.71226242    -0.05300
N293        N  0.02147442  0.08018641  0.68982846    -0.61000
N294        N  0.48276356  0.06469113  0.71259755    -0.07200
N295        N  0.47263250  0.08037960  0.69015440    -0.60000
N296        N  0.01210423  0.06570944  0.78015145    -0.05000
N297        N  0.02268177  0.08236872  0.80158690    -0.61000
Mn298      Mn  0.03679383  0.04147369  0.74617459     1.18400
C299        C  0.49900259  0.09239311  0.81573245     0.97200
C300        C  0.99685842  0.08994102  0.67601766     0.97900
N301        N  0.01198103  0.43738610  0.78217663    -0.07200
N302        N  0.02219259  0.42190884  0.80474351    -0.63600
N303        N  0.48337331  0.43711795  0.71393603    -0.06000
N304        N  0.47362605  0.42025109  0.69219847    -0.64200
N305        N  0.01175668  0.43751337  0.71414975    -0.06800
N306        N  0.02226145  0.42092718  0.69276198    -0.63800
N307        N  0.48379971  0.43751036  0.78221240    -0.05600
N308        N  0.47375796  0.42222440  0.80493240    -0.64500
Mn309      Mn  0.03688647  0.46128790  0.74793974     1.10700
C310        C  0.49845973  0.41300842  0.81900114     0.98500
C311        C  0.99793354  0.41016125  0.67921300     0.98500
N312        N  0.43320827  0.01613770  0.71353463    -0.06800
N313        N  0.41672100  0.02593692  0.69147318    -0.62100
N314        N  0.43441276  0.48535753  0.78268814    -0.06100
N315        N  0.41845232  0.47479254  0.80472513    -0.58900
N316        N  0.43423105  0.01686109  0.78184018    -0.07400
N317        N  0.41846312  0.02725085  0.80397127    -0.61700
N318        N  0.43377349  0.48563887  0.71476283    -0.06400
N319        N  0.41716449  0.47510634  0.69329600    -0.58900
Mn320      Mn  0.45769579  0.04164955  0.74717399     1.20200
Mn321      Mn  0.45814633  0.46066826  0.74832083     1.10100
Cl322      Cl  0.99674102  0.00197029  0.74696060    -0.86900
C323        C  0.40662563  0.00102938  0.67829035     0.95500
C324        C  0.40843725  0.49915624  0.81869509     0.95300
N325        N  0.48463994  0.21654496  0.56118199    -0.07000
N326        N  0.47519618  0.19439069  0.57764480    -0.59100
N327        N  0.01191723  0.28516299  0.56118510    -0.06700
N328        N  0.02176724  0.30694479  0.57785715    -0.61300
N329        N  0.48346693  0.28440592  0.56177727    -0.06300
N330        N  0.47311525  0.30588622  0.57839819    -0.59100
N331        N  0.01328887  0.21745511  0.56071231    -0.06000
N332        N  0.02417530  0.19594744  0.57709578    -0.61600
C333        C  0.99996051  0.18180264  0.58736705     0.95200
C334        C  0.49759516  0.31994878  0.58825761     0.94900
N335        N  0.05950677  0.28697738  0.98257055    -0.07200
N336        N  0.07615844  0.30887326  0.97270501    -0.59700
N337        N  0.06157788  0.21850872  0.51132583    -0.05300
N338        N  0.07883599  0.19719194  0.52121235    -0.61000
N339        N  0.06103968  0.21932676  0.98217814    -0.07200
N340        N  0.07798980  0.19832181  0.97154336    -0.60000
N341        N  0.06001361  0.28605533  0.51154656    -0.05000
N342        N  0.07614025  0.30780496  0.52203833    -0.61000
Mn343      Mn  0.03739059  0.25180248  0.53684971     1.18400
C344        C  0.08622474  0.32195652  0.99769881     0.97200
C345        C  0.08909707  0.18496704  0.99589455     0.97900
N346        N  0.43390977  0.28405205  0.51325885    -0.07200
N347        N  0.41666654  0.30480753  0.52398849    -0.63600
N348        N  0.43389042  0.21563246  0.98292316    -0.06000
N349        N  0.41659608  0.19455479  0.97260866    -0.64200
N350        N  0.43455733  0.21620266  0.51273937    -0.06800
N351        N  0.41747366  0.19478986  0.52290997    -0.63800
N352        N  0.43259067  0.28349259  0.98399155    -0.05600
N353        N  0.41520930  0.30484371  0.97436853    -0.64500
Mn354      Mn  0.45849454  0.25021467  0.53793542     1.10700
C355        C  0.40454101  0.31697691  0.99947431     0.98500
C356        C  0.40669632  0.18059093  0.99723575     0.98500
N357        N  0.01130142  0.21788454  0.93356352    -0.06800
N358        N  0.02137032  0.19639319  0.91667823    -0.62100
N359        N  0.48137503  0.28564490  0.93455703    -0.06100
N360        N  0.47079776  0.30785088  0.91885681    -0.58900
N361        N  0.00995643  0.28593727  0.93423221    -0.07400
N362        N  0.01954074  0.30851433  0.91843186    -0.61700
N363        N  0.48257235  0.21765348  0.93365593    -0.06400
N364        N  0.47246463  0.19581652  0.91730187    -0.58900
Mn365      Mn  0.03614955  0.25252353  0.95735507     1.20200
Mn366      Mn  0.45693971  0.25064552  0.95804734     1.10100
Cl367      Cl  0.49692121  0.25090460  0.99760908    -0.86900
C368        C  0.99661748  0.18257189  0.90691896     0.95500
C369        C  0.49518065  0.32226955  0.90917316     0.95300
N370        N  0.28203069  0.43724898  0.98359448    -0.07000
N371        N  0.30328935  0.42012007  0.97355770    -0.59100
N372        N  0.21342883  0.43650643  0.51214845    -0.06700
N373        N  0.19128881  0.42020106  0.52183444    -0.61300
N374        N  0.21427467  0.43676918  0.98297309    -0.06300
N375        N  0.19254001  0.42053740  0.97239971    -0.59100
N376        N  0.28117589  0.43668755  0.51281250    -0.06000
N377        N  0.30208532  0.41910895  0.52302313    -0.61600
C378        C  0.31617757  0.40932885  0.99836122     0.95200
C379        C  0.17856375  0.41045247  0.99682875     0.94900
N380        N  0.21185656  0.01403796  0.55995688    -0.07200
N381        N  0.18940770  0.02349364  0.57589068    -0.59700
N382        N  0.28073391  0.48565849  0.56215701    -0.05300
N383        N  0.30275980  0.47580501  0.57858745    -0.61000
N384        N  0.27989174  0.01561693  0.56080986    -0.07200
N385        N  0.30123837  0.02627593  0.57751965    -0.60000
N386        N  0.21253236  0.48483673  0.56172686    -0.05000
N387        N  0.19027365  0.47447618  0.57754851    -0.61000
Mn388      Mn  0.24698953  0.46019187  0.53800138     1.18400
C389        C  0.17611157  0.99840224  0.58546002     0.97200
C390        C  0.31599681  0.50068883  0.58866258     0.97900
N391        N  0.21366963  0.48578338  0.93412472    -0.07200
N392        N  0.19198846  0.47534804  0.91765609    -0.63600
N393        N  0.28066717  0.01768154  0.93322061    -0.06000
N394        N  0.30255321  0.02879087  0.91745373    -0.64200
N395        N  0.28165748  0.48679567  0.93458964    -0.06800
N396        N  0.30391132  0.47695689  0.91868887    -0.63800
N397        N  0.21271966  0.01594914  0.93265177    -0.05600
N398        N  0.19059185  0.02600150  0.91659105    -0.64500
Mn399      Mn  0.24799403  0.46100004  0.95809877     1.10700
C400        C  0.17769408  0.00129456  0.90599285     0.98500
C401        C  0.31725918  0.50179266  0.90860516     0.98500
N402        N  0.27926683  0.06572824  0.51192267    -0.06800
N403        N  0.30004470  0.08365281  0.52189575    -0.62100
N404        N  0.21096752  0.06422795  0.98206094    -0.06100
N405        N  0.18979926  0.08164176  0.97213051    -0.58900
N406        N  0.21162606  0.06378567  0.51182853    -0.07400
N407        N  0.19050891  0.08070864  0.52231910    -0.61700
N408        N  0.27837558  0.06581447  0.98238011    -0.06400
N409        N  0.29896666  0.08354098  0.97196326    -0.58900
Mn410      Mn  0.24573447  0.04037417  0.53687670     1.20200
Mn411      Mn  0.24561328  0.04149310  0.95688747     1.10100
Cl412      Cl  0.24726400  0.50061944  0.99775167    -0.86900
C413        C  0.31202795  0.09440038  0.99644539     0.95500
C414        C  0.17662049  0.09166464  0.99702414     0.95300
C415        C  0.33989934  0.38676986  0.99866131    -0.01000
C416        C  0.34180348  0.36756610  0.52294479    -0.12900
C417        C  0.36302742  0.34514225  0.52379288     0.01200
C418        C  0.38250762  0.34110388  0.00003623    -0.01100
C419        C  0.38089952  0.36059521  0.97587016    -0.12900
C420        C  0.35986304  0.38321231  0.97493787     0.01100
H421        H  0.32620977  0.36935986  0.54102034     0.14100
H422        H  0.39617728  0.35819292  0.95759067     0.14100
C423        C  0.35977176  0.40267276  0.94959107     0.35700
C424        C  0.36218470  0.32447454  0.54819928     0.35600
N425        N  0.35985025  0.41817898  0.92919457    -0.44600
N426        N  0.36142526  0.30769221  0.56756198    -0.44600
C427        C  0.33652922  0.11609283  0.99591856    -0.01000
C428        C  0.35479315  0.11949081  0.52159305    -0.12900
C429        C  0.37813950  0.13978692  0.52239048     0.01200
C430        C  0.38372982  0.15717377  0.99701599    -0.01100
C431        C  0.36617251  0.15402044  0.97162438    -0.12900
C432        C  0.34265804  0.13397209  0.97089171     0.01100
H433        H  0.35104729  0.10517213  0.54052274     0.14100
H434        H  0.37020776  0.16792977  0.95245820     0.14100
C435        C  0.32447256  0.13353185  0.94463441     0.35700
C436        C  0.39683662  0.13969811  0.54816344     0.35600
N437        N  0.30986157  0.13346931  0.92361826    -0.44600
N438        N  0.41168814  0.13903530  0.56895557    -0.44600
C439        C  0.10805881  0.34640017  0.99824189    -0.01000
C440        C  0.11610828  0.35989675  0.97142105    -0.12900
C441        C  0.13815374  0.38157667  0.97036399     0.01200
C442        C  0.15321823  0.38967633  0.99657089    -0.01100
C443        C  0.14331898  0.37776664  0.52347308    -0.12900
C444        C  0.12095877  0.35656206  0.52467033     0.01100
H445        H  0.10521288  0.35345145  0.95106694     0.14100
H446        H  0.15402293  0.38431160  0.54387838     0.14100
C447        C  0.11283274  0.34537389  0.55351804     0.35700
C448        C  0.14426881  0.39526840  0.94211079     0.35600
N449        N  0.10635620  0.33663441  0.57671785    -0.44600
N450        N  0.14887879  0.40628904  0.91943333    -0.44600
C451        C  0.15292607  0.11428607  0.99723269    -0.01000
C452        C  0.14435959  0.12704993  0.97020911    -0.12900
C453        C  0.12340343  0.14964565  0.96899047     0.01200
C454        C  0.11051417  0.16020586  0.99541762    -0.01100
C455        C  0.11954529  0.14738943  0.52321110    -0.12900
C456        C  0.14063200  0.12489583  0.52453890     0.01100
H457        H  0.15443764  0.11972525  0.94979832     0.14100
H458        H  0.11030411  0.15563514  0.54368059     0.14100
C459        C  0.14870590  0.11379411  0.55343282     0.35700
C460        C  0.11616982  0.16161985  0.94022041     0.35600
N461        N  0.15505098  0.10506097  0.57667858    -0.44600
N462        N  0.11045114  0.17107412  0.91709245    -0.47000
C463        C  0.38739665  0.49896978  0.84395357    -0.01000
C464        C  0.37364662  0.03001764  0.85014069    -0.12900
C465        C  0.35157072  0.03145279  0.87169826     0.01200
C466        C  0.34268619  0.50165142  0.88779800    -0.01100
C467        C  0.35227012  0.47441351  0.87663155    -0.12900
C468        C  0.37451323  0.47276056  0.85526349     0.01100
H469        H  0.37929263  0.04989772  0.83792645     0.14100
H470        H  0.34186793  0.45414921  0.88408608     0.14100
C471        C  0.38305700  0.44376808  0.84528812     0.35700
C472        C  0.33804937  0.05977818  0.87685108     0.35600
N473        N  0.38981975  0.42042591  0.83753853    -0.44600
N474        N  0.32742686  0.08261202  0.88086654    -0.44600
C475        C  0.15326855  0.00119530  0.88423700    -0.01000
C476        C  0.15085445  0.47505084  0.86747122    -0.12900
C477        C  0.13014186  0.47457040  0.84455318     0.01200
C478        C  0.11080439  0.49872986  0.84045914    -0.01100
C479        C  0.11364516  0.02520975  0.85679875    -0.12900
C480        C  0.13459290  0.02578897  0.87959791     0.01100
H481        H  0.16593421  0.45663114  0.86991953     0.14100
H482        H  0.09948115  0.04419287  0.85336226     0.14100
C483        C  0.13585615  0.05165557  0.89811769     0.35700
C484        C  0.13080707  0.44984574  0.82450260     0.35600
N485        N  0.13666907  0.07240752  0.91293448    -0.44600
N486        N  0.13158391  0.43011629  0.80834795    -0.44600
C487        C  0.15080228  0.99790667  0.60643029    -0.01000
C488        C  0.13555199  0.02433916  0.61179474    -0.12900
C489        C  0.11356055  0.02598843  0.63351175     0.01200
C490        C  0.10634621  0.00070741  0.65054994    -0.01100
C491        C  0.11472375  0.47530308  0.63974965    -0.12900
C492        C  0.13583175  0.47370604  0.61719785     0.01100
H493        H  0.14116010  0.04405751  0.59930612     0.14100
H494        H  0.10358936  0.45523202  0.64672857     0.14100
C495        C  0.14071143  0.44541296  0.60349326     0.35700
C496        C  0.09904523  0.05399392  0.63766065     0.35600
N497        N  0.14428261  0.42267338  0.59251368    -0.44600
N498        N  0.08760492  0.07657660  0.64076811    -0.44600
C499        C  0.38522529  0.00078767  0.65322420    -0.01000
C500        C  0.37336265  0.02778266  0.64357750    -0.12900
C501        C  0.35134562  0.02897903  0.62183967     0.01200
C502        C  0.34104033  0.50088819  0.60998035    -0.01100
C503        C  0.35126475  0.47379266  0.62114104    -0.12900
C504        C  0.37312208  0.47255147  0.64302477     0.01100
H505        H  0.38078665  0.04820033  0.65357066     0.14100
H506        H  0.34187061  0.45331221  0.61305068     0.14100
C507        C  0.38250301  0.44367530  0.65288186     0.35700
C508        C  0.34023402  0.05775932  0.61370376     0.35600
N509        N  0.38996174  0.42042771  0.66050383    -0.44600
N510        N  0.33148638  0.08092637  0.60734536    -0.44600
C511        C  0.99646364  0.15784037  0.88524696    -0.01000
C512        C  0.02357416  0.14631893  0.87565394    -0.12900
C513        C  0.02490339  0.12462388  0.85366077     0.01200
C514        C  0.49927724  0.11360002  0.84087228    -0.01100
C515        C  0.47212847  0.12358021  0.85193105    -0.12900
C516        C  0.47071935  0.14505411  0.87406982     0.01100
H517        H  0.04400158  0.15451985  0.88512390     0.14100
H518        H  0.45168398  0.11482567  0.84301315     0.14100
C519        C  0.44178330  0.15359942  0.88427600     0.35700
C520        C  0.05369461  0.11387684  0.84535078     0.35600
N521        N  0.41850752  0.16020376  0.89240178    -0.44600
N522        N  0.07684126  0.10531932  0.83886191    -0.44600
C523        C  0.49508809  0.34812210  0.88883516    -0.01000
C524        C  0.02142862  0.36057416  0.88080387    -0.12900
C525        C  0.02303399  0.38287602  0.85937212     0.01200
C526        C  0.49802208  0.39276318  0.84489151    -0.01100
C527        C  0.47071292  0.38113767  0.85400120    -0.12900
C528        C  0.46894741  0.35935966  0.87592106     0.01100
H529        H  0.04165941  0.35306699  0.89122236     0.14100
H530        H  0.45049632  0.38860646  0.84353298     0.14100
C531        C  0.43993015  0.34903311  0.88425470     0.35700
C532        C  0.05154759  0.39592739  0.85346167     0.35600
N533        N  0.41658404  0.34104924  0.89096799    -0.44600
N534        N  0.07440694  0.40650237  0.84904013    -0.44600
C535        C  0.49753154  0.34498869  0.60952188    -0.01000
C536        C  0.02370398  0.35361320  0.62231960    -0.12900
C537        C  0.02487664  0.37547435  0.64409949     0.01200
C538        C  0.99845962  0.38857564  0.65444601    -0.01100
C539        C  0.47240619  0.38098475  0.64057673    -0.12900
C540        C  0.47137674  0.35957235  0.61830826     0.01100
H541        H  0.04410280  0.34332955  0.61528631     0.14100
H542        H  0.45203730  0.39141320  0.64747598     0.14100
C543        C  0.44320087  0.35375387  0.60452738     0.35700
C544        C  0.05364452  0.38364453  0.65526011     0.35600
N545        N  0.42062202  0.34940102  0.59334039    -0.44600
N546        N  0.07678091  0.39020796  0.66395997    -0.44600
C547        C  0.00036901  0.15652156  0.60817942    -0.01000
C548        C  0.97334889  0.14312573  0.61537006    -0.12900
C549        C  0.97166833  0.12022896  0.63602846     0.01200
C550        C  0.99744565  0.11102799  0.65099178    -0.01100
C551        C  0.02466156  0.12370582  0.64311333    -0.12900
C552        C  0.02645857  0.14601314  0.62178323     0.01100
H553        H  0.45378589  0.14981462  0.60453072     0.14100
H554        H  0.04469361  0.11681553  0.65426833     0.14100
C555        C  0.05532458  0.15799473  0.61530238     0.35700
C556        C  0.44391913  0.10547239  0.64027334     0.35600
N557        N  0.07861472  0.16731828  0.61033137    -0.44600
N558        N  0.42111740  0.09436982  0.64353793    -0.44600
N559        N  0.06013114  0.98695843  0.21235636    -0.07000
N560        N  0.07589363  0.97671759  0.19016968    -0.59100
N561        N  0.06163753  0.51541664  0.28086492    -0.06700
N562        N  0.07905585  0.52497179  0.30224727    -0.61300
N563        N  0.06082300  0.98680415  0.28026702    -0.06300
N564        N  0.07809736  0.97619705  0.30119567    -0.59100
N565        N  0.06015425  0.51680525  0.21288266    -0.06000
N566        N  0.07669495  0.52749668  0.19134973    -0.61600
C567        C  0.08679103  0.50320824  0.17732152     0.95200
C568        C  0.08910909  0.00052399  0.31445662     0.94900
N569        N  0.48329598  0.56465826  0.28324972    -0.07200
N570        N  0.47381127  0.58033440  0.30584958    -0.59700
N571        N  0.01097247  0.56539552  0.21463365    -0.05300
N572        N  0.02087583  0.58232586  0.19303722    -0.61000
N573        N  0.48162553  0.56569108  0.21505201    -0.07200
N574        N  0.47125371  0.58260408  0.19359114    -0.60000
N575        N  0.01257905  0.56425266  0.28257847    -0.05000
N576        N  0.02333855  0.58005436  0.30457810    -0.61000
Mn577      Mn  0.03696584  0.54118465  0.24774965     1.18400
C578        C  0.49886573  0.58988712  0.31920805     0.97200
C579        C  0.99610017  0.59280843  0.18001962     0.97900
N580        N  0.01148646  0.93810696  0.28107583    -0.07200
N581        N  0.02168380  0.92148497  0.30283927    -0.63600
N582        N  0.48162842  0.93781288  0.21345724    -0.06000
N583        N  0.47134921  0.92095920  0.19200749    -0.64200
N584        N  0.01103590  0.93805580  0.21290062    -0.06800
N585        N  0.02110237  0.92143128  0.19125429    -0.63800
N586        N  0.48228093  0.93819219  0.28154000    -0.05600
N587        N  0.47225946  0.92174026  0.30347663    -0.64500
Mn588      Mn  0.03650832  0.96182868  0.24665135     1.10700
C589        C  0.49698854  0.91153395  0.31685066     0.98500
C590        C  0.99636757  0.91094950  0.17815270     0.98500
N591        N  0.43233432  0.51626936  0.21552934    -0.06800
N592        N  0.41539696  0.52617862  0.19384569    -0.62100
N593        N  0.43342698  0.98723726  0.28186953    -0.06100
N594        N  0.41758959  0.97725924  0.30429581    -0.58900
N595        N  0.43408896  0.51572549  0.28370732    -0.07400
N596        N  0.41796212  0.52559835  0.30583379    -0.61700
N597        N  0.43262797  0.98680314  0.21367602    -0.06400
N598        N  0.41593102  0.97633646  0.19219534    -0.58900
Mn599      Mn  0.45706884  0.54138029  0.24934456     1.20200
Mn600      Mn  0.45677494  0.96182051  0.24765850     1.10100
Cl601      Cl  0.99715822  0.50145592  0.24784937    -0.86900
C602        C  0.40535530  0.50129119  0.18055306     0.95500
C603        C  0.40806982  0.00204751  0.31790319     0.95300
N604        N  0.48431215  0.71757907  0.06126287    -0.07000
N605        N  0.47465736  0.69641415  0.07884781    -0.59100
N606        N  0.01173799  0.78576437  0.06068221    -0.06700
N607        N  0.02132640  0.80714962  0.07808405    -0.61300
N608        N  0.48286328  0.78502329  0.06100556    -0.06300
N609        N  0.47210643  0.80555737  0.07848376    -0.59100
N610        N  0.01326579  0.71792989  0.06086791    -0.06000
N611        N  0.02396338  0.69721052  0.07844095    -0.61600
C612        C  0.99961793  0.68363870  0.08934793     0.95200
C613        C  0.49628819  0.81951614  0.08903490     0.94900
N614        N  0.05927082  0.78681142  0.48210610    -0.07200
N615        N  0.07581775  0.80843249  0.47154316    -0.59700
N616        N  0.06167775  0.71869715  0.01070341    -0.05300
N617        N  0.07912002  0.69749634  0.02061183    -0.61000
N618        N  0.06133409  0.71914825  0.48318121    -0.07200
N619        N  0.07850683  0.69802199  0.47306471    -0.60000
N620        N  0.05995120  0.78651219  0.01014538    -0.05000
N621        N  0.07654264  0.80832157  0.01990657    -0.61000
Mn622      Mn  0.03740370  0.75227360  0.03625032     1.18400
C623        C  0.08603964  0.82219866  0.49605119     0.97200
C624        C  0.08953928  0.68510355  0.49773209     0.97900
N625        N  0.43323767  0.78410494  0.01267866    -0.07200
N626        N  0.41643644  0.80535306  0.02319970    -0.63600
N627        N  0.43368697  0.71580031  0.48445074    -0.06000
N628        N  0.41631847  0.69463495  0.47452410    -0.64200
N629        N  0.43431930  0.71621299  0.01279298    -0.06800
N630        N  0.41752849  0.69464934  0.02313204    -0.63800
N631        N  0.43235616  0.78353928  0.48406246    -0.05600
N632        N  0.41516308  0.80488081  0.47414034    -0.64500
Mn633      Mn  0.45810007  0.75064135  0.03752508     1.10700
C634        C  0.40507339  0.81800963  0.49902309     0.98500
C635        C  0.40638867  0.68118629  0.49937644     0.98500
N636        N  0.01150627  0.71674313  0.43459209    -0.06800
N637        N  0.02172032  0.69454846  0.41874330    -0.62100
N638        N  0.48071090  0.78436572  0.43399411    -0.06100
N639        N  0.46992113  0.80582614  0.41738536    -0.58900
N640        N  0.00987941  0.78494380  0.43344273    -0.07400
N641        N  0.01936004  0.80681113  0.41654664    -0.61700
N642        N  0.48229582  0.71628894  0.43519489    -0.06400
N643        N  0.47225288  0.69371454  0.41982973    -0.58900
Mn644      Mn  0.03617401  0.75189921  0.45758811     1.20200
Mn645      Mn  0.45660922  0.75004043  0.45869912     1.10100
Cl646      Cl  0.49687129  0.75129581  0.49799121    -0.86900
C647        C  0.99705301  0.68030867  0.40942340     0.95500
C648        C  0.49417733  0.81980330  0.40678653     0.95300
N649        N  0.28213810  0.93844163  0.48210937    -0.07000
N650        N  0.30319639  0.92126152  0.47190433    -0.59100
N651        N  0.21368067  0.93656043  0.00890700    -0.06700
N652        N  0.19180555  0.91964320  0.01816939    -0.61300
N653        N  0.21468815  0.93709290  0.48083522    -0.06300
N654        N  0.19348159  0.92043196  0.46984589    -0.59100
N655        N  0.28148065  0.93788856  0.01045908    -0.06000
N656        N  0.30262190  0.92058212  0.02067060    -0.61600
C657        C  0.31603175  0.91002899  0.49650421     0.95200
C658        C  0.17962732  0.90957522  0.49400936     0.94900
N659        N  0.21297357  0.51471153  0.06082783    -0.07200
N660        N  0.19074682  0.52484610  0.07655695    -0.59700
N661        N  0.27980504  0.98645059  0.06025861    -0.05300
N662        N  0.30160608  0.97680819  0.07714739    -0.61000
N663        N  0.28081357  0.51550135  0.06119358    -0.07200
N664        N  0.30224221  0.52616545  0.07777650    -0.60000
N665        N  0.21166194  0.98479317  0.05881987    -0.05000
N666        N  0.18969513  0.97392566  0.07466626    -0.61000
Mn667      Mn  0.24667629  0.96069376  0.03539036     1.18400
C668        C  0.17695561  0.50020927  0.08648060     0.97200
C669        C  0.31433569  0.00181169  0.08760939     0.97900
N670        N  0.21385805  0.98678698  0.43262912    -0.07200
N671        N  0.19245000  0.97638424  0.41578332    -0.63600
N672        N  0.28036199  0.51655728  0.43514755    -0.06000
N673        N  0.30206272  0.52731690  0.41885462    -0.64200
N674        N  0.28187474  0.98848541  0.43368848    -0.06800
N675        N  0.30432774  0.97919094  0.41769778    -0.63800
N676        N  0.21232524  0.51533392  0.43511252    -0.05600
N677        N  0.19058213  0.52532160  0.41841288    -0.64500
Mn678      Mn  0.24823340  0.96209010  0.45660489     1.10700
C679        C  0.17785432  0.50055767  0.40760731     0.98500
C680        C  0.31724827  0.00439045  0.40794023     0.98500
N681        N  0.28042088  0.56486599  0.01200931    -0.06800
N682        N  0.30158010  0.58236179  0.02188811    -0.62100
N683        N  0.21160158  0.56403252  0.48482370    -0.06100
N684        N  0.19040768  0.58156247  0.47513433    -0.58900
N685        N  0.21255403  0.56394920  0.01222926    -0.07400
N686        N  0.19131048  0.58086576  0.02259805    -0.61700
N687        N  0.27928774  0.56500844  0.48447796    -0.06400
N688        N  0.29994110  0.58271752  0.47407341    -0.58900
Mn689      Mn  0.24676414  0.54034248  0.03727575     1.20200
Mn690      Mn  0.24580348  0.54084481  0.45920088     1.10100
Cl691      Cl  0.24685873  0.00116530  0.49680986    -0.86900
C692        C  0.31325562  0.59335097  0.49858334     0.95500
C693        C  0.17768512  0.59191575  0.50014807     0.95300
C694        C  0.33987961  0.88751800  0.49649189    -0.01000
C695        C  0.35124335  0.87828281  0.02348789    -0.12900
C696        C  0.37288419  0.85627498  0.02511068     0.01200
C697        C  0.38345238  0.84264989  0.49903922    -0.01100
C698        C  0.37117595  0.85149804  0.47190065    -0.12900
C699        C  0.34974299  0.87360956  0.47033075     0.01100
H700        H  0.34261553  0.88737330  0.04386065     0.14100
H701        H  0.37806124  0.84084045  0.45162564     0.14100
C702        C  0.33816851  0.88092749  0.44144794     0.35700
C703        C  0.38298461  0.84746983  0.05413416     0.35600
N704        N  0.32903738  0.88667740  0.41821261    -0.44600
N705        N  0.39099347  0.84069660  0.07750816    -0.44600
C706        C  0.33739693  0.61549076  0.49819544    -0.01000
C707        C  0.35664438  0.61774304  0.02151226    -0.12900
C708        C  0.37949203  0.63861430  0.02252027     0.01200
C709        C  0.38357894  0.65768013  0.49937570    -0.01100
C710        C  0.36487746  0.65544713  0.47471705    -0.12900
C711        C  0.34195041  0.63476498  0.47390807     0.01100
H712        H  0.35324571  0.60315338  0.04029098     0.14100
H713        H  0.36770434  0.67042062  0.45614188     0.14100
C714        C  0.32283879  0.63488516  0.44830781     0.35700
C715        C  0.39818794  0.63905628  0.04835185     0.35600
N716        N  0.30754588  0.63513438  0.42778139    -0.44600
N717        N  0.41317027  0.63909359  0.06908303    -0.44600
C718        C  0.10810733  0.84648087  0.49559223    -0.01000
C719        C  0.12077284  0.85475685  0.46843437    -0.12900
C720        C  0.14354772  0.87567554  0.46701072     0.01200
C721        C  0.15432303  0.88869892  0.49335121    -0.01100
C722        C  0.14029210  0.88155161  0.01914304    -0.12900
C723        C  0.11756243  0.86072864  0.02055061     0.01100
H724        H  0.11327605  0.84445223  0.44815498     0.14100
H725        H  0.14771179  0.89182973  0.03946748     0.14100
C726        C  0.10473043  0.85479134  0.04918397     0.35700
C727        C  0.15542017  0.88276591  0.43819432     0.35600
N728        N  0.09455445  0.85022462  0.07221761    -0.44600
N729        N  0.16467839  0.88834968  0.41498043    -0.44600
C730        C  0.15393174  0.61460738  0.50042219    -0.01000
C731        C  0.14284692  0.62472009  0.47320046    -0.12900
C732        C  0.12156709  0.64701561  0.47164552     0.01200
C733        C  0.11107919  0.66030204  0.49789076    -0.01100
C734        C  0.11924825  0.64686160  0.02282094    -0.12900
C735        C  0.14011025  0.62407072  0.02428766     0.01100
H736        H  0.15101795  0.61534626  0.45279499     0.14100
H737        H  0.10957462  0.65484306  0.04319287     0.14100
C738        C  0.14678392  0.61180765  0.05306568     0.35700
C739        C  0.11110485  0.65546449  0.44264113     0.35600
N740        N  0.15184382  0.60201775  0.07620780    -0.44600
N741        N  0.10278983  0.66199280  0.41930240    -0.47000
C742        C  0.38727542  0.00265106  0.34329610    -0.01000
C743        C  0.37660489  0.52802330  0.35517192    -0.12900
C744        C  0.35447725  0.52953130  0.37674146     0.01200
C745        C  0.34262224  0.00506157  0.38711910    -0.01100
C746        C  0.35789125  0.97866573  0.38162303    -0.12900
C747        C  0.38021455  0.97730212  0.36025786     0.01100
H748        H  0.38565805  0.54842168  0.34636153     0.14100
H749        H  0.35225954  0.95883400  0.39392922     0.14100
C750        C  0.39570928  0.94972173  0.35679554     0.35700
C751        C  0.34546918  0.55841673  0.38654374     0.35600
N752        N  0.40818112  0.92760487  0.35433946    -0.44600
N753        N  0.33842081  0.58165906  0.39430889    -0.44600
C754        C  0.15388884  0.50027708  0.38520428    -0.01000
C755        C  0.15113605  0.97610127  0.36579624    -0.12900
C756        C  0.13027070  0.97551004  0.34302134     0.01200
C757        C  0.11118023  0.99982850  0.33865121    -0.01100
C758        C  0.11368636  0.52356582  0.35792219    -0.12900
C759        C  0.13450670  0.52435050  0.38084930     0.01100
H760        H  0.16604501  0.95756311  0.36840581     0.14100
H761        H  0.09892179  0.54213899  0.35484807     0.14100
C762        C  0.13488556  0.54989113  0.39981559     0.35700
C763        C  0.13025500  0.95024986  0.32364282     0.35600
N764        N  0.13494672  0.57042909  0.41493601    -0.44600
N765        N  0.13042437  0.93000338  0.30812201    -0.44600
C766        C  0.15174512  0.50074560  0.10747769    -0.01000
C767        C  0.14420952  0.52779116  0.12052826    -0.12900
C768        C  0.12260948  0.52948486  0.14253681     0.01200
C769        C  0.10802091  0.50352479  0.15224298    -0.01100
C770        C  0.12020971  0.97376693  0.14375034    -0.12900
C771        C  0.14177136  0.97197764  0.12170159     0.01100
H772        H  0.15575755  0.54779387  0.11407140     0.14100
H773        H  0.11470591  0.95400456  0.15620905     0.14100
C774        C  0.15534614  0.94360295  0.11685096     0.35700
C775        C  0.11668255  0.55817425  0.15498430     0.35600
N776        N  0.16610930  0.92076790  0.11316586    -0.44600
N777        N  0.11207273  0.58128627  0.16474428    -0.44600
C778        C  0.38421811  0.50090251  0.15533823    -0.01000
C779        C  0.37402032  0.52791470  0.14396483    -0.12900
C780        C  0.35282633  0.52897286  0.12141441     0.01200
C781        C  0.33926037  0.00227292  0.10917731    -0.01100
C782        C  0.35160901  0.97529816  0.11831753    -0.12900
C783        C  0.37372035  0.97411226  0.14001699     0.01100
H784        H  0.38245273  0.54846226  0.15286871     0.14100
H785        H  0.34372076  0.95483112  0.10874249     0.14100
C786        C  0.38511777  0.94539664  0.14797173     0.35700
C787        C  0.34417034  0.55772079  0.11056602     0.35600
N788        N  0.39412477  0.92228724  0.15417433    -0.44600
N789        N  0.33746939  0.58083197  0.10188092    -0.44600
C790        C  0.99707433  0.65475029  0.38874390    -0.01000
C791        C  0.02423962  0.64289193  0.37966113    -0.12900
C792        C  0.02567716  0.62096882  0.35787404     0.01200
C793        C  0.49922147  0.61035326  0.34492209    -0.01100
C794        C  0.47207272  0.62040633  0.35586831    -0.12900
C795        C  0.47063397  0.64205443  0.37778906     0.01100
H796        H  0.04460898  0.65123277  0.38911551     0.14100
H797        H  0.45162790  0.61187681  0.34673427     0.14100
C798        C  0.44165690  0.65130430  0.38720210     0.35700
C799        C  0.05450336  0.61025371  0.34961110     0.35600
N800        N  0.41833171  0.65855757  0.39458763    -0.44600
N801        N  0.07770179  0.60181847  0.34313904    -0.44600
C802        C  0.49388883  0.84493377  0.38549152    -0.01000
C803        C  0.02077370  0.85890596  0.37838608    -0.12900
C804        C  0.02236934  0.88123391  0.35691343     0.01200
C805        C  0.49667261  0.88990865  0.34167528    -0.01100
C806        C  0.46954795  0.87715911  0.34978953    -0.12900
C807        C  0.46785718  0.85503303  0.37141546     0.01100
H808        H  0.04082152  0.85233475  0.38975547     0.14100
H809        H  0.44945517  0.88393461  0.33865426     0.14100
C810        C  0.43908327  0.84284652  0.37787082     0.35700
C811        C  0.05075552  0.89478472  0.35156190     0.35600
N812        N  0.41589634  0.83328208  0.38286244    -0.44600
N813        N  0.07357433  0.90556342  0.34743411    -0.44600
C814        C  0.49537459  0.84361211  0.11122799    -0.01000
C815        C  0.01916505  0.86309190  0.11284937    -0.12900
C816        C  0.01959605  0.88594182  0.13369331     0.01200
C817        C  0.99618289  0.88875718  0.15412036    -0.01100
C818        C  0.47193515  0.86955342  0.15207697    -0.12900
C819        C  0.47146487  0.84695596  0.13108090     0.01100
H820        H  0.03723834  0.86116526  0.09729674     0.14100
H821        H  0.45379660  0.87132926  0.16759928     0.14100
C822        C  0.44664157  0.82689913  0.13152467     0.35700
C823        C  0.04365262  0.90688713  0.13265781     0.35600
N824        N  0.42667086  0.81092593  0.13209722    -0.44600
N825        N  0.06281629  0.92379091  0.13152415    -0.44600
C826        C  0.99963372  0.65947919  0.11162700    -0.01000
C827        C  0.97235773  0.64726946  0.12006707    -0.12900
C828        C  0.97048863  0.62500022  0.14148385     0.01200
C829        C  0.99642542  0.61480145  0.15559103    -0.01100
C830        C  0.02377098  0.62668640  0.14683998    -0.12900
C831        C  0.02565508  0.64870543  0.12514109     0.01100
H832        H  0.45212022  0.65537029  0.10986357     0.14100
H833        H  0.04394925  0.61906763  0.15727832     0.14100
C834        C  0.05462298  0.65993799  0.11786778     0.35700
C835        C  0.44147331  0.61284925  0.14746819     0.35600
N836        N  0.07794390  0.66878232  0.11222035    -0.44600
N837        N  0.41821316  0.60330510  0.15214423    -0.44600
N838        N  0.05964969  0.98712408  0.71206262    -0.07000
N839        N  0.07544607  0.97680589  0.68991957    -0.59100
N840        N  0.06101555  0.51506006  0.78223977    -0.06700
N841        N  0.07834061  0.52467493  0.80368322    -0.61300
N842        N  0.06062236  0.98736312  0.77997672    -0.06300
N843        N  0.07769922  0.97680409  0.80106107    -0.59100
N844        N  0.06038329  0.51590956  0.71423298    -0.06000
N845        N  0.07684004  0.52644583  0.69257321    -0.61600
C846        C  0.08699341  0.50205582  0.67876667     0.95200
C847        C  0.08875992  0.00114656  0.81421213     0.94900
N848        N  0.48294308  0.56388547  0.78279372    -0.07200
N849        N  0.47305987  0.57991382  0.80497985    -0.59700
N850        N  0.01116140  0.56461383  0.71494652    -0.05300
N851        N  0.02120853  0.58178523  0.69357627    -0.61000
N852        N  0.48215939  0.56443931  0.71469446    -0.07200
N853        N  0.47182323  0.58138557  0.69326784    -0.60000
N854        N  0.01175142  0.56380182  0.78288005    -0.05000
N855        N  0.02214824  0.57988798  0.80482707    -0.61000
Mn856      Mn  0.03674152  0.54057502  0.74858721     1.18400
C857        C  0.49789219  0.58987867  0.81845468     0.97200
C858        C  0.99649510  0.59221283  0.68035514     0.97900
N859        N  0.01129944  0.93882348  0.78160321    -0.07200
N860        N  0.02147038  0.92264164  0.80373571    -0.63600
N861        N  0.48186495  0.93796725  0.71403821    -0.06000
N862        N  0.47135026  0.92102007  0.69279249    -0.64200
N863        N  0.01046764  0.93821443  0.71337451    -0.06800
N864        N  0.02036421  0.92143086  0.69178772    -0.63800
N865        N  0.48280355  0.93898470  0.78206400    -0.05600
N866        N  0.47268100  0.92314972  0.80437978    -0.64500
Mn867      Mn  0.03617922  0.96219671  0.74673785     1.10700
C868        C  0.49732752  0.91315681  0.81801855     0.98500
C869        C  0.99552511  0.91094032  0.67889932     0.98500
N870        N  0.43326345  0.51465720  0.71470196    -0.06800
N871        N  0.41623327  0.52440959  0.69303613    -0.62100
N872        N  0.43407088  0.98784712  0.78219473    -0.06100
N873        N  0.41818456  0.97792127  0.80459862    -0.58900
N874        N  0.43420250  0.51436428  0.78292874    -0.07400
N875        N  0.41811414  0.52408986  0.80514799    -0.61700
N876        N  0.43319066  0.98712483  0.71399331    -0.06400
N877        N  0.41673922  0.97663483  0.69233869    -0.58900
Mn878      Mn  0.45736913  0.54010500  0.74874368     1.20200
Mn879      Mn  0.45727781  0.96228972  0.74808163     1.10100
Cl880      Cl  0.99706760  0.50071110  0.74837137    -0.86900
C881        C  0.40637956  0.49945169  0.67974917     0.95500
C882        C  0.40869232  0.00272742  0.81817043     0.95300
N883        N  0.48417282  0.71743535  0.56200182    -0.07000
N884        N  0.47467473  0.69599888  0.57933311    -0.59100
N885        N  0.01090022  0.78612996  0.56141561    -0.06700
N886        N  0.02024499  0.80757721  0.57883460    -0.61300
N887        N  0.48198874  0.78487054  0.56180646    -0.06300
N888        N  0.47106395  0.80525811  0.57937819    -0.59100
N889        N  0.01315626  0.71834582  0.56204085    -0.06000
N890        N  0.02398016  0.69767393  0.57960442    -0.61600
C891        C  0.99971759  0.68378386  0.59030184     0.95200
C892        C  0.49517195  0.81939168  0.58989669     0.94900
N893        N  0.05956830  0.78639822  0.98107545    -0.07200
N894        N  0.07588165  0.80818680  0.97050691    -0.59700
N895        N  0.06177480  0.71942359  0.51225156    -0.05300
N896        N  0.07927648  0.69841835  0.52244354    -0.61000
N897        N  0.06106355  0.71864812  0.98162614    -0.07200
N898        N  0.07806822  0.69748843  0.97123693    -0.60000
N899        N  0.05940819  0.78712415  0.51118031    -0.05000
N900        N  0.07604684  0.80889831  0.52093600    -0.61000
Mn901      Mn  0.03703309  0.75283347  0.53736191     1.18400
C902        C  0.08623251  0.82184235  0.99501498     0.97200
C903        C  0.08919858  0.68431395  0.99573998     0.97900
N904        N  0.43272212  0.78341402  0.51312924    -0.07200
N905        N  0.41585179  0.80464370  0.52354941    -0.63600
N906        N  0.43375217  0.71652001  0.98373291    -0.06000
N907        N  0.41660290  0.69524211  0.97369699    -0.64200
N908        N  0.43423064  0.71563310  0.51351402    -0.06800
N909        N  0.41724543  0.69428555  0.52396200    -0.63800
N910        N  0.43280192  0.78432854  0.98362209    -0.05600
N911        N  0.41564640  0.80575699  0.97380523    -0.64500
Mn912      Mn  0.45769495  0.75024939  0.53819919     1.10700
C913        C  0.40561268  0.81883222  0.99874164     0.98500
C914        C  0.40677253  0.68158242  0.99846772     0.98500
N915        N  0.01071653  0.71723616  0.93349493    -0.06800
N916        N  0.02060164  0.69497979  0.91754681    -0.62100
N917        N  0.48108570  0.78499259  0.93365846    -0.06100
N918        N  0.47031947  0.80687321  0.91763347    -0.58900
N919        N  0.00973800  0.78551101  0.93296088    -0.07400
N920        N  0.01921048  0.80768143  0.91643912    -0.61700
N921        N  0.48193310  0.71691377  0.93423106    -0.06400
N922        N  0.47154012  0.69463601  0.91866117    -0.58900
Mn923      Mn  0.03595216  0.75192272  0.95651413     1.20200
Mn924      Mn  0.45675395  0.75073707  0.95809963     1.10100
Cl925      Cl  0.49717346  0.75138739  0.99720577    -0.86900
C926        C  0.99573567  0.68102125  0.90835351     0.95500
C927        C  0.49456702  0.82087743  0.90710915     0.95300
N928        N  0.28190435  0.93851373  0.98139023    -0.07000
N929        N  0.30329537  0.92165478  0.97129806    -0.59100
N930        N  0.21410523  0.93655576  0.50989296    -0.06700
N931        N  0.19238400  0.91947104  0.51924357    -0.61300
N932        N  0.21436615  0.93712888  0.97985459    -0.06300
N933        N  0.19306305  0.92064692  0.96877497    -0.59100
N934        N  0.28185680  0.93783048  0.51117845    -0.06000
N935        N  0.30277200  0.92019030  0.52128577    -0.61600
C936        C  0.31621538  0.91064990  0.99597541     0.95200
C937        C  0.17905386  0.90987909  0.99289135     0.94900
N938        N  0.21244676  0.51384869  0.56181609    -0.07200
N939        N  0.19016952  0.52379316  0.57757970    -0.59700
N940        N  0.28054922  0.98660082  0.56081432    -0.05300
N941        N  0.30247803  0.97699464  0.57755860    -0.61000
N942        N  0.28036388  0.51467649  0.56217744    -0.07200
N943        N  0.30202404  0.52510764  0.57862414    -0.60000
N944        N  0.21237627  0.98502629  0.55963884    -0.05000
N945        N  0.19034659  0.97419896  0.57540912    -0.61000
Mn946      Mn  0.24724569  0.96079579  0.53617882     1.18400
C947        C  0.17636407  0.49905336  0.58722009     0.97200
C948        C  0.31531169  0.00202561  0.58783341     0.97900
N949        N  0.21360640  0.98697878  0.93189765    -0.07200
N950        N  0.19200718  0.97668828  0.91524118    -0.63600
N951        N  0.28113195  0.51580698  0.93429852    -0.06000
N952        N  0.30309362  0.52626189  0.91815836    -0.64200
N953        N  0.28168913  0.98869534  0.93304555    -0.06800
N954        N  0.30427304  0.97950868  0.91717120    -0.63800
N955        N  0.21304321  0.51478806  0.93436628    -0.05600
N956        N  0.19093372  0.52469451  0.91814782    -0.64500
Mn957      Mn  0.24799411  0.96217968  0.95580180     1.10700
C958        C  0.17783214  0.49987103  0.90800122     0.98500
C959        C  0.31719779  0.00476824  0.90755932     0.98500
N960        N  0.27977934  0.56465918  0.51354404    -0.06800
N961        N  0.30087782  0.58219274  0.52351914    -0.62100
N962        N  0.21226145  0.56399809  0.98317275    -0.06100
N963        N  0.19075961  0.58101010  0.97321301    -0.58900
N964        N  0.21202503  0.56370513  0.51388291    -0.07400
N965        N  0.19117026  0.58093060  0.52451312    -0.61700
N966        N  0.28006201  0.56491706  0.98294517    -0.06400
N967        N  0.30086846  0.58240443  0.97243820    -0.58900
Mn968      Mn  0.24623155  0.53978373  0.53858819     1.20200
Mn969      Mn  0.24657419  0.54050429  0.95795391     1.10100
Cl970      Cl  0.24637941  0.00113534  0.99612176    -0.86900
C971        C  0.31414313  0.59319631  0.99690982     0.95500
C972        C  0.17769062  0.59132696  0.99806670     0.95300
C973        C  0.34045739  0.88850545  0.99614666    -0.01000
C974        C  0.35258513  0.87910940  0.52360914    -0.12900
C975        C  0.37422407  0.85710534  0.52514031     0.01200
C976        C  0.38406133  0.84359103  0.99883971    -0.01100
C977        C  0.37385960  0.85440686  0.97153116    -0.12900
C978        C  0.35252170  0.87663773  0.96989934     0.01100
H979        H  0.34557993  0.88973987  0.54385660     0.14100
H980        H  0.38242028  0.84531430  0.95112935     0.14100
C981        C  0.34361004  0.88648833  0.94081796     0.35700
C982        C  0.38655339  0.85031667  0.55383609     0.35600
N983        N  0.33665817  0.89432109  0.91743063    -0.44600
N984        N  0.39635758  0.84515018  0.57692840    -0.44600
C985        C  0.33838543  0.61522944  0.99653021    -0.01000
C986        C  0.35629137  0.61748903  0.52274955    -0.12900
C987        C  0.37936254  0.63814107  0.52345402     0.01200
C988        C  0.38424703  0.65777753  0.99823956    -0.01100
C989        C  0.36628123  0.65491295  0.97309078    -0.12900
C990        C  0.34347300  0.63410602  0.97204205     0.01100
H991        H  0.35334125  0.60253670  0.54130330     0.14100
H992        H  0.36949262  0.66957587  0.95433215     0.14100
C993        C  0.32489400  0.63387633  0.94605765     0.35700
C994        C  0.39904004  0.63782067  0.54857119     0.35600
N995        N  0.31002475  0.63393401  0.92522008    -0.44600
N996        N  0.41490931  0.63727947  0.56863296    -0.44600
C997        C  0.10793893  0.84642778  0.99450147    -0.01000
C998        C  0.12041850  0.85488553  0.96730920    -0.12900
C999        C  0.14297362  0.87603499  0.96585111     0.01200
C1000       C  0.15370922  0.88907913  0.99218942    -0.01100
C1001       C  0.14086309  0.88122095  0.52029719    -0.12900
C1002       C  0.11791004  0.86062671  0.52166935     0.01100
H1003       H  0.11298822  0.84451427  0.94703992     0.14100
H1004       H  0.14836287  0.89142612  0.54062909     0.14100
C1005       C  0.10499992  0.85479771  0.55029115     0.35700
C1006       C  0.15469122  0.88331798  0.93701799     0.35600
N1007       N  0.09474230  0.85031438  0.57330552    -0.44600
N1008       N  0.16382522  0.88906185  0.91379284    -0.44600
C1009       C  0.15355334  0.61364595  0.99807347    -0.01000
C1010       C  0.14444585  0.62567739  0.97088367    -0.12900
C1011       C  0.12316502  0.64801203  0.96935377     0.01200
C1012       C  0.11067922  0.65939741  0.99563952    -0.01100
C1013       C  0.12175491  0.64984620  0.52519301    -0.12900
C1014       C  0.14271746  0.62716831  0.52675083     0.01100
H1015       H  0.15427473  0.61789338  0.95052496     0.14100
H1016       H  0.11378472  0.65947970  0.54558324     0.14100
C1017       C  0.15209749  0.61755054  0.55577255     0.35700
C1018       C  0.11496689  0.65864318  0.94033743     0.35600
N1019       N  0.15938307  0.60992966  0.57913164    -0.44600
N1020       N  0.10847842  0.66686343  0.91694825    -0.47000
C1021       C  0.38778899  0.00330868  0.84348143    -0.01000
C1022       C  0.37882951  0.52612336  0.85615000    -0.12900
C1023       C  0.35693715  0.52770178  0.87792967     0.01200
C1024       C  0.34277481  0.00555123  0.88696508    -0.01100
C1025       C  0.35809821  0.97918382  0.88149407    -0.12900
C1026       C  0.38061707  0.97790754  0.86032889     0.01100
H1027       H  0.38893614  0.54642695  0.84832573     0.14100
H1028       H  0.35237429  0.95930731  0.89368064     0.14100
C1029       C  0.39622232  0.95036696  0.85698901     0.35700
C1030       C  0.34966306  0.55645697  0.88938320     0.35600
N1031       N  0.40879690  0.92829243  0.85464890    -0.44600
N1032       N  0.34404740  0.57960329  0.89847448    -0.44600
C1033       C  0.15343720  0.49952994  0.88618735    -0.01000
C1034       C  0.14973476  0.97619150  0.86642285    -0.12900
C1035       C  0.12896391  0.97564026  0.84360863     0.01200
C1036       C  0.11066052  0.00042357  0.83851491    -0.01100
C1037       C  0.11284242  0.52289826  0.85965244    -0.12900
C1038       C  0.13387714  0.52353743  0.88236520     0.01100
H1039       H  0.16401916  0.95724692  0.86958343     0.14100
H1040       H  0.09791647  0.54138503  0.85693421     0.14100
C1041       C  0.13440257  0.54888286  0.90160474     0.35700
C1042       C  0.12834039  0.94988566  0.82490065     0.35600
N1043       N  0.13464162  0.56925351  0.91695372    -0.44600
N1044       N  0.12803880  0.92923094  0.80992829    -0.44600
C1045       C  0.15122466  0.49944165  0.60830678    -0.01000
C1046       C  0.14337744  0.52656610  0.62100119    -0.12900
C1047       C  0.12205490  0.52825827  0.64325015     0.01200
C1048       C  0.10796933  0.50223591  0.65350048    -0.01100
C1049       C  0.12054215  0.97396376  0.64411548    -0.12900
C1050       C  0.14251721  0.97229926  0.62246775     0.01100
H1051       H  0.15449235  0.54667084  0.61409071     0.14100
H1052       H  0.11522000  0.95427934  0.65677848     0.14100
C1053       C  0.15691944  0.94420363  0.61845063     0.35700
C1054       C  0.11593383  0.55703792  0.65539706     0.35600
N1055       N  0.16841116  0.92162564  0.61543750    -0.44600
N1056       N  0.11118504  0.58021575  0.66493174    -0.44600
C1057       C  0.38503399  0.49901577  0.65471085    -0.01000
C1058       C  0.37574451  0.52604871  0.64261248    -0.12900
C1059       C  0.35430367  0.52725208  0.62031610     0.01200
C1060       C  0.34040208  0.00255306  0.60918416    -0.01100
C1061       C  0.35316037  0.97563332  0.61790843    -0.12900
C1062       C  0.37537149  0.97447874  0.63950051     0.01100
H1063       H  0.38513244  0.54652512  0.65071359     0.14100
H1064       H  0.34551436  0.95518767  0.60809701     0.14100
C1065       C  0.38731294  0.94585709  0.64697246     0.35700
C1066       C  0.34676020  0.55596415  0.60857884     0.35600
N1067       N  0.39678108  0.92283255  0.65277972    -0.44600
N1068       N  0.34100169  0.57907310  0.59923002    -0.44600
C1069       C  0.99544616  0.65542193  0.88777535    -0.01000
C1070       C  0.02243557  0.64243475  0.87984365    -0.12900
C1071       C  0.02382423  0.62028317  0.85832703     0.01200
C1072       C  0.49790813  0.61083315  0.84375528    -0.01100
C1073       C  0.47080510  0.62255793  0.85301866    -0.12900
C1074       C  0.46939182  0.64452667  0.87463552     0.01100
H1075       H  0.04274657  0.64999341  0.89007211     0.14100
H1076       H  0.45046751  0.61515035  0.84273639     0.14100
C1077       C  0.44056467  0.65586731  0.88198664     0.35700
C1078       C  0.05248520  0.60828865  0.85137699     0.35600
N1079       N  0.41737113  0.66484249  0.88769776    -0.44600
N1080       N  0.07554914  0.59883231  0.84593220    -0.44600
C1081       C  0.49410422  0.84639830  0.88632436    -0.01000
C1082       C  0.01994690  0.86194192  0.88085326    -0.12900
C1083       C  0.02144310  0.88450799  0.85960461     0.01200
C1084       C  0.49675950  0.89182061  0.84304722    -0.01100
C1085       C  0.46999474  0.87748111  0.84949385    -0.12900
C1086       C  0.46836534  0.85510697  0.87083188     0.01100
H1087       H  0.03965790  0.85636764  0.89330408     0.14100
H1088       H  0.45023978  0.88307319  0.83713621     0.14100
C1089       C  0.44008687  0.84098937  0.87526301     0.35700
C1090       C  0.04912114  0.89995925  0.85602134     0.35600
N1091       N  0.41730319  0.82986306  0.87862011    -0.44600
N1092       N  0.07134171  0.91233119  0.85336210    -0.44600
C1093       C  0.49429566  0.84351974  0.61200013    -0.01000
C1094       C  0.01796839  0.86315867  0.61352718    -0.12900
C1095       C  0.01857072  0.88588765  0.63445494     0.01200
C1096       C  0.99515439  0.88880460  0.65485016    -0.01100
C1097       C  0.47131212  0.86951050  0.65303360    -0.12900
C1098       C  0.47055219  0.84692990  0.63202153     0.01100
H1099       H  0.03607484  0.86114583  0.59801745     0.14100
H1100       H  0.45330472  0.87138216  0.66869622     0.14100
C1101       C  0.44567435  0.82694415  0.63265131     0.35700
C1102       C  0.04291139  0.90651594  0.63362878     0.35600
N1103       N  0.42564632  0.81104802  0.63340499    -0.44600
N1104       N  0.06233362  0.92313543  0.63270676    -0.44600
C1105       C  0.99984054  0.65943725  0.61240437    -0.01000
C1106       C  0.97253061  0.64788180  0.62159798    -0.12900
C1107       C  0.97072423  0.62551158  0.64290044     0.01200
C1108       C  0.99679484  0.61441976  0.65608253    -0.01100
C1109       C  0.02417503  0.62560947  0.64654336    -0.12900
C1110       C  0.02597574  0.64778590  0.62495634     0.01100
H1111       H  0.45215238  0.65652379  0.61203841     0.14100
H1112       H  0.04444178  0.61726027  0.65621548     0.14100
C1113       C  0.05499515  0.65810573  0.61661386     0.35700
C1114       C  0.44153818  0.61449647  0.65007685     0.35600
N1115       N  0.07835381  0.66620337  0.61007505    -0.44600
N1116       N  0.41813958  0.60597857  0.65589952    -0.44600
N1117       N  0.55952175  0.48810985  0.21210663    -0.07000
N1118       N  0.57589737  0.47854551  0.19002738    -0.59100
N1119       N  0.56082813  0.01576122  0.28074031    -0.06700
N1120       N  0.57839373  0.02544439  0.30196563    -0.61300
N1121       N  0.56132408  0.48674775  0.27999673    -0.06300
N1122       N  0.57868337  0.47594267  0.30077498    -0.59100
N1123       N  0.56010334  0.01598624  0.21254337    -0.06000
N1124       N  0.57623931  0.02607090  0.19036215    -0.61600
C1125       C  0.58570509  0.00132724  0.17661939     0.95200
C1126       C  0.58951767  0.50016375  0.31439830     0.94900
N1127       N  0.98301154  0.06543707  0.28052751    -0.07200
N1128       N  0.97319964  0.08230596  0.30214241    -0.59700
N1129       N  0.51131507  0.06438457  0.21292030    -0.05300
N1130       N  0.52174630  0.07980396  0.19050055    -0.61000
N1131       N  0.98278671  0.06461406  0.21242428    -0.07200
N1132       N  0.97289878  0.08056442  0.19006093    -0.60000
N1133       N  0.51174632  0.06508233  0.28081092    -0.05000
N1134       N  0.52225290  0.08173648  0.30227295    -0.61000
Mn1135     Mn  0.53665995  0.04106026  0.24686291     1.18400
C1136       C  0.99808300  0.09233891  0.31549303     0.97200
C1137       C  0.49728372  0.08943702  0.17636144     0.97900
N1138       N  0.51229408  0.43802965  0.28096774    -0.07200
N1139       N  0.52311315  0.42180748  0.30268986    -0.63600
N1140       N  0.98203329  0.43823280  0.21312769    -0.06000
N1141       N  0.97180291  0.42172568  0.19131700    -0.64200
N1142       N  0.51053771  0.43858748  0.21301751    -0.06800
N1143       N  0.52041504  0.42156267  0.19164365    -0.63800
N1144       N  0.98341589  0.43763809  0.28140575    -0.05600
N1145       N  0.97372164  0.42159199  0.30379099    -0.64500
Mn1146     Mn  0.53653321  0.46222213  0.24641807     1.10700
C1147       C  0.99867502  0.41174615  0.31699842     0.98500
C1148       C  0.49568816  0.41058423  0.17896513     0.98500
N1149       N  0.93314307  0.01586534  0.21275715    -0.06800
N1150       N  0.91653471  0.02564109  0.19076165    -0.62100
N1151       N  0.93440088  0.48619440  0.28307620    -0.06100
N1152       N  0.91819583  0.47565606  0.30494826    -0.58900
N1153       N  0.93376537  0.01643067  0.28105444    -0.07400
N1154       N  0.91806063  0.02683524  0.30321574    -0.61700
N1155       N  0.93289614  0.48698043  0.21531699    -0.06400
N1156       N  0.91590956  0.47655838  0.19413461    -0.58900
Mn1157     Mn  0.95739407  0.04136197  0.24665151     1.20200
Mn1158     Mn  0.95750894  0.46155587  0.24821699     1.10100
Cl1159     Cl  0.49663353  0.00151943  0.24714961    -0.86900
C1160       C  0.90641786  0.00071599  0.17760642     0.95500
C1161       C  0.90829617  0.50004178  0.31897417     0.95300
N1162       N  0.98453526  0.21645454  0.06117068    -0.07000
N1163       N  0.97540538  0.19427693  0.07775591    -0.59100
N1164       N  0.51071347  0.28423411  0.06211804    -0.06700
N1165       N  0.52001100  0.30560559  0.07964802    -0.61300
N1166       N  0.98214888  0.28424702  0.06157880    -0.06300
N1167       N  0.97132645  0.30563668  0.07801903    -0.59100
N1168       N  0.51314244  0.21654190  0.06060369    -0.06000
N1169       N  0.52431591  0.19502693  0.07679062    -0.61600
C1170       C  0.50030196  0.18036048  0.08679108     0.95200
C1171       C  0.99547772  0.32026208  0.08783547     0.94900
N1172       N  0.56039314  0.28620125  0.48271536    -0.07200
N1173       N  0.57663412  0.30837257  0.47282857    -0.59700
N1174       N  0.56141440  0.21865207  0.01131367    -0.05300
N1175       N  0.57843574  0.19703979  0.02098076    -0.61000
N1176       N  0.56124853  0.21848937  0.48232609    -0.07200
N1177       N  0.57806779  0.19735078  0.47174706    -0.60000
N1178       N  0.55927333  0.28629145  0.01226898    -0.05000
N1179       N  0.57560300  0.30786201  0.02288137    -0.61000
Mn1180     Mn  0.53684573  0.25151745  0.03723166     1.18400
C1181       C  0.58657566  0.32155274  0.49780400     0.97200
C1182       C  0.58900020  0.18390020  0.49613547     0.97900
N1183       N  0.93264257  0.28293936  0.01314166    -0.07200
N1184       N  0.91526437  0.30361059  0.02381004    -0.63600
N1185       N  0.93388392  0.21657106  0.48329130    -0.06000
N1186       N  0.91658893  0.19544842  0.47309612    -0.64200
N1187       N  0.93450032  0.21513662  0.01277408    -0.06800
N1188       N  0.91767937  0.19354882  0.02299666    -0.63800
N1189       N  0.93325837  0.28451970  0.48367491    -0.05600
N1190       N  0.91586593  0.30583680  0.47396036    -0.64500
Mn1191     Mn  0.95782476  0.24958506  0.03785941     1.10700
C1192       C  0.90539736  0.31825300  0.49902645     0.98500
C1193       C  0.90664146  0.18164356  0.49777199     0.98500
N1194       N  0.51154666  0.21777466  0.43366914    -0.06800
N1195       N  0.52141968  0.19607921  0.41694853    -0.62100
N1196       N  0.98187626  0.28553267  0.43403605    -0.06100
N1197       N  0.97148679  0.30757433  0.41795932    -0.58900
N1198       N  0.51117131  0.28581500  0.43411622    -0.07400
N1199       N  0.52120039  0.30792518  0.41793251    -0.61700
N1200       N  0.98246452  0.21755941  0.43383013    -0.06400
N1201       N  0.97211665  0.19589240  0.41738890    -0.58900
Mn1202     Mn  0.53679608  0.25204252  0.45745019     1.20200
Mn1203     Mn  0.95719824  0.25108539  0.45799575     1.10100
Cl1204     Cl  0.99732309  0.25127017  0.49739490    -0.86900
C1205       C  0.49655454  0.18252466  0.40713049     0.95500
C1206       C  0.99601586  0.32153319  0.40798435     0.95300
N1207       N  0.78141715  0.43729881  0.48317940    -0.07000
N1208       N  0.80272714  0.42027077  0.47304916    -0.59100
N1209       N  0.71341952  0.43665475  0.01234661    -0.06700
N1210       N  0.69127921  0.42044394  0.02223237    -0.61300
N1211       N  0.71361940  0.43710803  0.48259554    -0.06300
N1212       N  0.69178475  0.42101703  0.47200838    -0.59100
N1213       N  0.78121972  0.43661529  0.01296999    -0.06000
N1214       N  0.80212172  0.41909735  0.02331807    -0.61600
C1215       C  0.81562622  0.40933348  0.49779739     0.95200
C1216       C  0.67788500  0.41083970  0.49645075     0.94900
N1217       N  0.71104976  0.01374775  0.05961981    -0.07200
N1218       N  0.68874863  0.02315654  0.07576141    -0.59700
N1219       N  0.78088807  0.48627750  0.06170945    -0.05300
N1220       N  0.80257915  0.47655143  0.07864528    -0.61000
N1221       N  0.77902719  0.01539472  0.06084424    -0.07200
N1222       N  0.80042900  0.02599247  0.07752019    -0.60000
N1223       N  0.71277580  0.48577321  0.06127347    -0.05000
N1224       N  0.69047135  0.47570164  0.07718964    -0.61000
Mn1225     Mn  0.74709665  0.46060342  0.03787424     1.18400
C1226       C  0.67554913  0.99805372  0.08540141     0.97200
C1227       C  0.81575608  0.50151603  0.08859027     0.97900
N1228       N  0.71315329  0.48647576  0.43393361    -0.07200
N1229       N  0.69183290  0.47622330  0.41688273    -0.63600
N1230       N  0.78115172  0.01742601  0.43336342    -0.06000
N1231       N  0.80298328  0.02853304  0.41752559    -0.64200
N1232       N  0.78105396  0.48724860  0.43443699    -0.06800
N1233       N  0.80310506  0.47753225  0.41817903    -0.63800
N1234       N  0.71313138  0.01550907  0.43282122    -0.05600
N1235       N  0.69096082  0.02538507  0.41667797    -0.64500
Mn1236     Mn  0.74739010  0.46137329  0.45783117     1.10700
C1237       C  0.67819746  0.00056211  0.40612409     0.98500
C1238       C  0.81634373  0.50245504  0.40815250     0.98500
N1239       N  0.77864837  0.06561320  0.01218893    -0.06800
N1240       N  0.79963847  0.08321834  0.02229831    -0.62100
N1241       N  0.71152088  0.06396318  0.48226506    -0.06100
N1242       N  0.69021526  0.08124038  0.47240319    -0.58900
N1243       N  0.71087033  0.06365951  0.01158519    -0.07400
N1244       N  0.68941425  0.08028504  0.02190920    -0.61700
N1245       N  0.77901330  0.06582596  0.48244706    -0.06400
N1246       N  0.79952088  0.08372210  0.47207632    -0.58900
Mn1247     Mn  0.74495011  0.04021922  0.03681850     1.20200
Mn1248     Mn  0.74612560  0.04126993  0.45701331     1.10100
Cl1249     Cl  0.74681761  0.50065425  0.49784843    -0.86900
C1250       C  0.81258733  0.09456897  0.49659896     0.95500
C1251       C  0.67711017  0.09123925  0.49734796     0.95300
C1252       C  0.83961216  0.38701889  0.49804408    -0.01000
C1253       C  0.84022565  0.36600481  0.02234402    -0.12900
C1254       C  0.86103716  0.34321634  0.02289017     0.01200
C1255       C  0.88305377  0.34210789  0.49956685    -0.01100
C1256       C  0.88113258  0.36152600  0.47538610    -0.12900
C1257       C  0.85964137  0.38371196  0.47433612     0.01100
H1258       H  0.82390341  0.36717747  0.03982164     0.14100
H1259       H  0.89649849  0.35936860  0.45717656     0.14100
C1260       C  0.85910255  0.40292814  0.44882723     0.35700
C1261       C  0.85896483  0.32140486  0.04620561     0.35600
N1262       N  0.85881926  0.41819220  0.42825706    -0.44600
N1263       N  0.85721344  0.30372765  0.06468513    -0.44600
C1264       C  0.83692271  0.11652817  0.49620243    -0.01000
C1265       C  0.85506648  0.11828468  0.02189731    -0.12900
C1266       C  0.87855431  0.13841499  0.02258398     0.01200
C1267       C  0.88373082  0.15813871  0.49750013    -0.01100
C1268       C  0.86543542  0.15572578  0.47254189    -0.12900
C1269       C  0.84223156  0.13530324  0.47165265     0.01100
H1270       H  0.85130888  0.10394884  0.04081060     0.14100
H1271       H  0.86878334  0.17036242  0.45378812     0.14100
C1272       C  0.82367749  0.13515770  0.44564911     0.35700
C1273       C  0.89730351  0.13829596  0.04831161     0.35600
N1274       N  0.80886807  0.13523511  0.42477047    -0.44600
N1275       N  0.91215971  0.13763740  0.06909747    -0.44600
C1276       C  0.60788378  0.34640964  0.49824294    -0.01000
C1277       C  0.61588681  0.35971074  0.47130736    -0.12900
C1278       C  0.63776509  0.38152899  0.47009220     0.01200
C1279       C  0.65259246  0.39005104  0.49628122    -0.01100
C1280       C  0.64357756  0.37741648  0.02421440    -0.12900
C1281       C  0.62111459  0.35627463  0.02549699     0.01100
H1282       H  0.60520776  0.35288757  0.45096415     0.14100
H1283       H  0.65450256  0.38381751  0.04454994     0.14100
C1284       C  0.61304591  0.34503466  0.05433570     0.35700
C1285       C  0.64413813  0.39472234  0.44166132     0.35600
N1286       N  0.60655386  0.33626762  0.07752061    -0.44600
N1287       N  0.64899828  0.40530685  0.41883028    -0.44600
C1288       C  0.65325058  0.11365765  0.49763490    -0.01000
C1289       C  0.64386522  0.12563208  0.47053183    -0.12900
C1290       C  0.62270475  0.14801605  0.46928333     0.01200
C1291       C  0.61043433  0.15916430  0.49575076    -0.01100
C1292       C  0.61733384  0.14574483  0.02241045    -0.12900
C1293       C  0.63815243  0.12299847  0.02365849     0.01100
H1294       H  0.65345043  0.11784859  0.45005503     0.14100
H1295       H  0.60720739  0.15312918  0.04279390     0.14100
C1296       C  0.64454967  0.11030974  0.05230332     0.35700
C1297       C  0.61458969  0.15914856  0.44041649     0.35600
N1298       N  0.64947825  0.10034131  0.07539197    -0.44600
N1299       N  0.60815846  0.16795837  0.41722405    -0.47000
C1300       C  0.88688785  0.49993732  0.34390880    -0.01000
C1301       C  0.87340767  0.02967861  0.34953639    -0.12900
C1302       C  0.85152038  0.03115180  0.37129160     0.01200
C1303       C  0.84167076  0.50251750  0.38723174    -0.01100
C1304       C  0.85212915  0.47528149  0.37688316    -0.12900
C1305       C  0.87466008  0.47368850  0.35582122     0.01100
H1306       H  0.87877843  0.04948355  0.33707769     0.14100
H1307       H  0.84226824  0.45494256  0.38482316     0.14100
C1308       C  0.88433134  0.44469836  0.34692629     0.35700
C1309       C  0.83775707  0.05940829  0.37627959     0.35600
N1310       N  0.89200389  0.42136285  0.34005344    -0.44600
N1311       N  0.82690507  0.08215620  0.38020640    -0.44600
C1312       C  0.65374602  0.00026421  0.38436574    -0.01000
C1313       C  0.65084832  0.47569458  0.36666863    -0.12900
C1314       C  0.63015315  0.47497688  0.34370722     0.01200
C1315       C  0.61136683  0.49942380  0.33881730    -0.01100
C1316       C  0.61321865  0.02381166  0.35784664    -0.12900
C1317       C  0.63414098  0.02425883  0.38068960     0.01100
H1318       H  0.66547005  0.45699597  0.36972354     0.14100
H1319       H  0.59837035  0.04238393  0.35513268     0.14100
C1320       C  0.63420721  0.04914471  0.40053233     0.35700
C1321       C  0.63017332  0.44956546  0.32453305     0.35600
N1322       N  0.63401086  0.06901708  0.41652234    -0.44600
N1323       N  0.63048820  0.42928476  0.30906210    -0.44600
C1324       C  0.65051153  0.99762072  0.10668026    -0.01000
C1325       C  0.63559802  0.02417795  0.11236946    -0.12900
C1326       C  0.61386231  0.02595732  0.13430936     0.01200
C1327       C  0.60659975  0.00067404  0.15128869    -0.01100
C1328       C  0.61427947  0.47701286  0.13829169    -0.12900
C1329       C  0.63569991  0.47535643  0.11607896     0.01100
H1330       H  0.64124004  0.04388338  0.09991092     0.14100
H1331       H  0.60314153  0.45697248  0.14518955     0.14100
C1332       C  0.64077362  0.44700539  0.10256106     0.35700
C1333       C  0.59958577  0.05406219  0.13867232     0.35600
N1334       N  0.64455275  0.42423017  0.09172730    -0.44600
N1335       N  0.58830405  0.07670470  0.14194508    -0.44600
C1336       C  0.88485855  0.00039952  0.15265342    -0.01000
C1337       C  0.87354526  0.02742768  0.14243270    -0.12900
C1338       C  0.85146484  0.02861346  0.12074963     0.01200
C1339       C  0.84025446  0.50189895  0.11049432    -0.01100
C1340       C  0.84986195  0.47492190  0.12243366    -0.12900
C1341       C  0.87128514  0.47385534  0.14471876     0.01100
H1342       H  0.88150147  0.04790067  0.15188506     0.14100
H1343       H  0.84031465  0.45439698  0.11463460     0.14100
C1344       C  0.87982507  0.44504687  0.15553512     0.35700
C1345       C  0.84111348  0.05743782  0.11178534     0.35600
N1346       N  0.88659673  0.42186410  0.16397394    -0.44600
N1347       N  0.83295642  0.08061728  0.10470797    -0.44600
C1348       C  0.49629091  0.15765053  0.38559926    -0.01000
C1349       C  0.52337578  0.14659487  0.37541347    -0.12900
C1350       C  0.52461823  0.12487037  0.35345615     0.01200
C1351       C  0.99831579  0.11374032  0.34048750    -0.01100
C1352       C  0.97120641  0.12419786  0.35121215    -0.12900
C1353       C  0.96991033  0.14576150  0.37330185     0.01100
H1354       H  0.54386664  0.15527085  0.38430361     0.14100
H1355       H  0.95073295  0.11581329  0.34201074     0.14100
C1356       C  0.94102552  0.15522273  0.38281098     0.35700
C1357       C  0.55345299  0.11494699  0.34429687     0.35600
N1358       N  0.91781079  0.16267069  0.39035525    -0.44600
N1359       N  0.57663543  0.10708181  0.33709176    -0.44600
C1360       C  0.99621392  0.34693268  0.38710572    -0.01000
C1361       C  0.52393055  0.35547526  0.37478750    -0.12900
C1362       C  0.52549075  0.37734253  0.35291030     0.01200
C1363       C  0.99885164  0.39101364  0.34253373    -0.01100
C1364       C  0.97171257  0.38265005  0.35509853    -0.12900
C1365       C  0.97017423  0.36117325  0.37739260     0.01100
H1366       H  0.54413156  0.34465559  0.38173266     0.14100
H1367       H  0.95142733  0.39270491  0.34730479     0.14100
C1368       C  0.94156438  0.35462373  0.38986519     0.35700
C1369       C  0.55429956  0.38484932  0.34149159     0.35600
N1370       N  0.91858799  0.34964943  0.39989564    -0.44600
N1371       N  0.57748710  0.39083578  0.33256583    -0.44600
C1372       C  0.99488641  0.34563969  0.10876173    -0.01000
C1373       C  0.52036132  0.35721527  0.11855196    -0.12900
C1374       C  0.52136588  0.38000522  0.13937018     0.01200
C1375       C  0.49554459  0.38806798  0.15499237    -0.01100
C1376       C  0.96950852  0.37973347  0.14180721    -0.12900
C1377       C  0.96839136  0.35777673  0.12003167     0.01100
H1378       H  0.54046448  0.35127604  0.10703948     0.14100
H1379       H  0.94899743  0.38813968  0.15075219     0.14100
C1380       C  0.93964793  0.34854125  0.10971471     0.35700
C1381       C  0.54930520  0.39473982  0.14371710     0.35600
N1382       N  0.91654694  0.34142883  0.10136594    -0.44600
N1383       N  0.57182602  0.40638374  0.14697112    -0.44600
C1384       C  0.50104645  0.15504447  0.10757990    -0.01000
C1385       C  0.47445152  0.14026473  0.11347927    -0.12900
C1386       C  0.47283339  0.11766853  0.13447870     0.01200
C1387       C  0.49816947  0.11013754  0.15102050    -0.01100
C1388       C  0.52513669  0.12394207  0.14421897    -0.12900
C1389       C  0.52692827  0.14595018  0.12255258     0.01100
H1390       H  0.95476960  0.14884603  0.10347061     0.14100
H1391       H  0.54490759  0.11816337  0.15644870     0.14100
C1392       C  0.55551173  0.15905066  0.11707326     0.35700
C1393       C  0.94505793  0.10451037  0.13917097     0.35600
N1394       N  0.57859936  0.16921823  0.11286472    -0.44600
N1395       N  0.92247400  0.09281591  0.14181445    -0.44600
N1396       N  0.56077203  0.48724821  0.71342408    -0.07000
N1397       N  0.57717124  0.47753992  0.69142043    -0.59100
N1398       N  0.56157646  0.01617366  0.78020050    -0.06700
N1399       N  0.57900213  0.02596947  0.80147749    -0.61300
N1400       N  0.56161053  0.48656991  0.78119691    -0.06300
N1401       N  0.57915440  0.47596085  0.80188044    -0.59100
N1402       N  0.56051081  0.01594804  0.71202355    -0.06000
N1403       N  0.57657491  0.02592476  0.68974413    -0.61600
C1404       C  0.58602684  0.00113531  0.67608798     0.95200
C1405       C  0.58990631  0.50030960  0.81526317     0.94900
N1406       N  0.98307996  0.06593286  0.78043244    -0.07200
N1407       N  0.97339212  0.08272871  0.80213513    -0.59700
N1408       N  0.51176734  0.06446825  0.71245329    -0.05300
N1409       N  0.52196847  0.07988482  0.68992390    -0.61000
N1410       N  0.98226595  0.06481457  0.71237557    -0.07200
N1411       N  0.97213888  0.08061064  0.69001501    -0.60000
N1412       N  0.51269952  0.06549406  0.78039054    -0.05000
N1413       N  0.52331994  0.08203171  0.80190513    -0.61000
Mn1414     Mn  0.53733008  0.04129340  0.74633756     1.18400
C1415       C  0.99833790  0.09280817  0.81530539     0.97200
C1416       C  0.49735509  0.08959529  0.67607910     0.97900
N1417       N  0.51279671  0.43771307  0.78213260    -0.07200
N1418       N  0.52308170  0.42245307  0.80483792    -0.63600
N1419       N  0.98275601  0.43706115  0.71402507    -0.06000
N1420       N  0.97297564  0.42006403  0.69240891    -0.64200
N1421       N  0.51237055  0.43768229  0.71400908    -0.06800
N1422       N  0.52290696  0.42131115  0.69247203    -0.63800
N1423       N  0.98298937  0.43727848  0.78222014    -0.05600
N1424       N  0.97286594  0.42181838  0.80479187    -0.64500
Mn1425     Mn  0.53750870  0.46160638  0.74765906     1.10700
C1426       C  0.99753934  0.41241876  0.81879300     0.98500
C1427       C  0.49860441  0.41055136  0.67888115     0.98500
N1428       N  0.93280499  0.01618944  0.71328919    -0.06800
N1429       N  0.91638921  0.02595265  0.69116642    -0.62100
N1430       N  0.93392847  0.48542785  0.78271972    -0.06100
N1431       N  0.91800617  0.47487273  0.80478218    -0.58900
N1432       N  0.93373671  0.01701411  0.78160210    -0.07400
N1433       N  0.91812639  0.02743577  0.80383414    -0.61700
N1434       N  0.93338571  0.48582540  0.71481037    -0.06400
N1435       N  0.91668333  0.47534322  0.69339985    -0.58900
Mn1436     Mn  0.95718716  0.04177153  0.74691722     1.20200
Mn1437     Mn  0.95756716  0.46069140  0.74836032     1.10100
Cl1438     Cl  0.49723858  0.00183240  0.74713964    -0.86900
C1439       C  0.90635945  0.00102132  0.67798782     0.95500
C1440       C  0.90811001  0.49923608  0.81882633     0.95300
N1441       N  0.98430297  0.21671393  0.56089931    -0.07000
N1442       N  0.97484718  0.19463381  0.57743600    -0.59100
N1443       N  0.51246738  0.28499072  0.56148797    -0.06700
N1444       N  0.52241070  0.30691491  0.57792477    -0.61300
N1445       N  0.98291796  0.28449567  0.56141541    -0.06300
N1446       N  0.97247431  0.30577867  0.57823318    -0.59100
N1447       N  0.51362790  0.21722734  0.56090957    -0.06000
N1448       N  0.52452316  0.19561697  0.57714887    -0.61600
C1449       C  0.50032384  0.18146134  0.58743425     0.95200
C1450       C  0.99689975  0.31980515  0.58827740     0.94900
N1451       N  0.55942821  0.28677956  0.98320713    -0.07200
N1452       N  0.57590820  0.30884876  0.97348902    -0.59700
N1453       N  0.56177713  0.21823566  0.51138095    -0.05300
N1454       N  0.57900092  0.19683609  0.52114220    -0.61000
N1455       N  0.56098926  0.21907747  0.98225496    -0.07200
N1456       N  0.57769130  0.19788090  0.97158613    -0.60000
N1457       N  0.56044444  0.28578912  0.51176651    -0.05000
N1458       N  0.57662927  0.30751377  0.52222911    -0.61000
Mn1459     Mn  0.53777400  0.25156017  0.53705862     1.18400
C1460       C  0.58580863  0.32190520  0.99854281     0.97200
C1461       C  0.58845544  0.18420040  0.99592232     0.97900
N1462       N  0.93352070  0.28393158  0.51274765    -0.07200
N1463       N  0.91633225  0.30476041  0.52341010    -0.63600
N1464       N  0.93390533  0.21566825  0.98370431    -0.06000
N1465       N  0.91666316  0.19447514  0.97357615    -0.64200
N1466       N  0.93438828  0.21603602  0.51236427    -0.06800
N1467       N  0.91745984  0.19448911  0.52252037    -0.63800
N1468       N  0.93241280  0.28357092  0.98407289    -0.05600
N1469       N  0.91489868  0.30477595  0.97434258    -0.64500
Mn1470     Mn  0.95812448  0.25021273  0.53753794     1.10700
C1471       C  0.90429627  0.31704776  0.99940731     0.98500
C1472       C  0.90684655  0.18064640  0.99829651     0.98500
N1473       N  0.51158215  0.21809988  0.93334251    -0.06800
N1474       N  0.52174715  0.19646722  0.91670015    -0.62100
N1475       N  0.98096534  0.28530034  0.93454891    -0.06100
N1476       N  0.97023419  0.30743419  0.91886744    -0.58900
N1477       N  0.51036944  0.28622422  0.93441424    -0.07400
N1478       N  0.52010090  0.30883591  0.91872230    -0.61700
N1479       N  0.98229504  0.21737942  0.93410779    -0.06400
N1480       N  0.97209922  0.19564551  0.91767813    -0.58900
Mn1481     Mn  0.53631122  0.25254339  0.95753915     1.20200
Mn1482     Mn  0.95673477  0.25049808  0.95838791     1.10100
Cl1483     Cl  0.99695541  0.25116683  0.99763805    -0.86900
C1484       C  0.49705022  0.18261045  0.90685086     0.95500
C1485       C  0.99453111  0.32185342  0.90900754     0.95300
N1486       N  0.78160349  0.43696687  0.98388324    -0.07000
N1487       N  0.80286944  0.41983421  0.97386743    -0.59100
N1488       N  0.71334275  0.43677834  0.51165212    -0.06700
N1489       N  0.69127272  0.42044134  0.52142976    -0.61300
N1490       N  0.71378221  0.43668778  0.98328379    -0.06300
N1491       N  0.69193212  0.42052994  0.97281389    -0.59100
N1492       N  0.78109897  0.43678381  0.51226756    -0.06000
N1493       N  0.80209581  0.41931084  0.52248184    -0.61600
C1494       C  0.81566774  0.40899758  0.99869225     0.95200
C1495       C  0.67792370  0.41061592  0.99731279     0.94900
N1496       N  0.71189533  0.01377250  0.55947502    -0.07200
N1497       N  0.68955103  0.02320233  0.57556505    -0.59700
N1498       N  0.78072740  0.48580611  0.56163902    -0.05300
N1499       N  0.80253992  0.47593861  0.57835344    -0.61000
N1500       N  0.77987441  0.01546008  0.56037436    -0.07200
N1501       N  0.80115487  0.02614608  0.57713920    -0.60000
N1502       N  0.71252475  0.48527526  0.56100344    -0.05000
N1503       N  0.69018823  0.47501775  0.57677896    -0.61000
Mn1504     Mn  0.74695546  0.46043008  0.53742469     1.18400
C1505       C  0.67635814  0.99810022  0.58524647     0.97200
C1506       C  0.81574792  0.50082120  0.58848535     0.97900
N1507       N  0.71350253  0.48559913  0.93417611    -0.07200
N1508       N  0.69212068  0.47521996  0.91728153    -0.63600
N1509       N  0.78100740  0.01785078  0.93382824    -0.06000
N1510       N  0.80291106  0.02898648  0.91809544    -0.64200
N1511       N  0.78144059  0.48652885  0.93481641    -0.06800
N1512       N  0.80372186  0.47672989  0.91891416    -0.63800
N1513       N  0.71301811  0.01603332  0.93299423    -0.05600
N1514       N  0.69088658  0.02603211  0.91689294    -0.64500
Mn1515     Mn  0.74766537  0.46077476  0.95832068     1.10700
C1516       C  0.67807828  0.00128566  0.90625463     0.98500
C1517       C  0.81704675  0.50160150  0.90885387     0.98500
N1518       N  0.77930876  0.06553342  0.51151890    -0.06800
N1519       N  0.80018266  0.08333427  0.52152372    -0.62100
N1520       N  0.71099016  0.06417757  0.98253152    -0.06100
N1521       N  0.68957961  0.08124424  0.97251832    -0.58900
N1522       N  0.71163736  0.06350881  0.51131637    -0.07400
N1523       N  0.69046716  0.08036510  0.52179541    -0.61700
N1524       N  0.77851090  0.06590574  0.98312341    -0.06400
N1525       N  0.79922886  0.08356927  0.97284580    -0.58900
Mn1526     Mn  0.74574518  0.04015894  0.53640802     1.20200
Mn1527     Mn  0.74581832  0.04159501  0.95742621     1.10100
Cl1528     Cl  0.74701046  0.50045798  0.99794137    -0.86900
C1529       C  0.81224978  0.09431387  0.99741180     0.95500
C1530       C  0.67612873  0.09105424  0.99735132     0.95300
C1531       C  0.83938168  0.38647664  0.99895978    -0.01000
C1532       C  0.84183419  0.36781598  0.52241597    -0.12900
C1533       C  0.86294409  0.34529709  0.52321404     0.01200
C1534       C  0.88206826  0.34094865  0.99996036    -0.01100
C1535       C  0.88144393  0.36155863  0.97670460    -0.12900
C1536       C  0.86041544  0.38420103  0.97602394     0.01100
H1537       H  0.82630948  0.36969748  0.54054229     0.14100
H1538       H  0.89757972  0.36010550  0.95906948     0.14100
C1539       C  0.86158500  0.40523794  0.95199488     0.35700
C1540       C  0.86202289  0.32463987  0.54762706     0.35600
N1541       N  0.86269767  0.42211098  0.93274554    -0.44600
N1542       N  0.86117223  0.30786061  0.56698840    -0.44600
C1543       C  0.83673208  0.11605009  0.99700839    -0.01000
C1544       C  0.85545555  0.11862808  0.52097672    -0.12900
C1545       C  0.87884343  0.13889224  0.52170190     0.01200
C1546       C  0.88385838  0.15723961  0.99813003    -0.01100
C1547       C  0.86575989  0.15465384  0.97305567    -0.12900
C1548       C  0.84234344  0.13450441  0.97228786     0.01100
H1549       H  0.85200421  0.10399936  0.53972452     0.14100
H1550       H  0.86935485  0.16902730  0.95414498     0.14100
C1551       C  0.82378515  0.13444229  0.94628554     0.35700
C1552       C  0.89813015  0.13829607  0.54703726     0.35600
N1553       N  0.80890673  0.13460781  0.92545741    -0.44600
N1554       N  0.91353279  0.13721382  0.56740929    -0.44600
C1555       C  0.60742300  0.34655075  0.99908598    -0.01000
C1556       C  0.61546401  0.35995316  0.97220780    -0.12900
C1557       C  0.63743987  0.38168889  0.97105541     0.01200
C1558       C  0.65249356  0.38992329  0.99721302    -0.01100
C1559       C  0.64366303  0.37766918  0.52331946    -0.12900
C1560       C  0.62141305  0.35636007  0.52464911     0.01100
H1561       H  0.60463491  0.35336988  0.95186333     0.14100
H1562       H  0.65447645  0.38423642  0.54365856     0.14100
C1563       C  0.61351575  0.34510776  0.55353622     0.35700
C1564       C  0.64349807  0.39530104  0.94275220     0.35600
N1565       N  0.60722026  0.33632079  0.57676847    -0.44600
N1566       N  0.64805671  0.40627657  0.92004250    -0.44600
C1567       C  0.65208558  0.11332719  0.99742379    -0.01000
C1568       C  0.64372953  0.12622355  0.97039230    -0.12900
C1569       C  0.62268633  0.14874055  0.96909569     0.01200
C1570       C  0.60957387  0.15916922  0.99545844    -0.01100
C1571       C  0.61938414  0.14680360  0.52284204    -0.12900
C1572       C  0.64043332  0.12428416  0.52407443     0.01100
H1573       H  0.65409182  0.11911789  0.95004754     0.14100
H1574       H  0.61005581  0.15488111  0.54334045     0.14100
C1575       C  0.64832831  0.11292727  0.55291704     0.35700
C1576       C  0.61560526  0.16079275  0.94032300     0.35600
N1577       N  0.65452172  0.10400077  0.57612980    -0.44600
N1578       N  0.60998052  0.17029766  0.91719313    -0.47000
C1579       C  0.88713415  0.49903450  0.84413584    -0.01000
C1580       C  0.87393111  0.03031067  0.85066507    -0.12900
C1581       C  0.85205945  0.03175293  0.87244710     0.01200
C1582       C  0.84247237  0.50157197  0.88804020    -0.01100
C1583       C  0.85242877  0.47434648  0.87717868    -0.12900
C1584       C  0.87459642  0.47277440  0.85572424     0.01100
H1585       H  0.87963031  0.05023780  0.83855428     0.14100
H1586       H  0.84234657  0.45401710  0.88490962     0.14100
C1587       C  0.88335563  0.44380189  0.84588006     0.35700
C1588       C  0.83892246  0.06017095  0.87808637     0.35600
N1589       N  0.89025954  0.42048264  0.83818759    -0.44600
N1590       N  0.82862357  0.08307235  0.88254500    -0.44600
C1591       C  0.65368247  0.00109450  0.88446770    -0.01000
C1592       C  0.65349760  0.47662401  0.86468220    -0.12900
C1593       C  0.63302521  0.47658441  0.84155266     0.01200
C1594       C  0.61208080  0.49957027  0.83922923    -0.01100
C1595       C  0.61384852  0.02491260  0.85717551    -0.12900
C1596       C  0.63473996  0.02550907  0.88002592     0.01100
H1597       H  0.66979433  0.45914883  0.86589895     0.14100
H1598       H  0.59948883  0.04377422  0.85387445     0.14100
C1599       C  0.63562537  0.05115935  0.89885742     0.35700
C1600       C  0.63549300  0.45378226  0.81946078     0.35600
N1601       N  0.63611462  0.07172337  0.91394426    -0.44600
N1602       N  0.63768800  0.43568099  0.80161993    -0.44600
C1603       C  0.65121481  0.99761285  0.60641915    -0.01000
C1604       C  0.63599596  0.02404998  0.61184134    -0.12900
C1605       C  0.61411288  0.02572854  0.63366012     0.01200
C1606       C  0.60696862  0.00046959  0.65075652    -0.01100
C1607       C  0.61433369  0.47597998  0.63855269    -0.12900
C1608       C  0.63540954  0.47444386  0.61595413     0.01100
H1609       H  0.64152351  0.04374946  0.59928942     0.14100
H1610       H  0.60292904  0.45596296  0.64524217     0.14100
C1611       C  0.63990476  0.44630382  0.60181138     0.35700
C1612       C  0.59959998  0.05373515  0.63781609     0.35600
N1613       N  0.64317833  0.42369272  0.59048062    -0.44600
N1614       N  0.58815574  0.07631617  0.64092543    -0.44600
C1615       C  0.88501141  0.00074099  0.65291180    -0.01000
C1616       C  0.87312666  0.02772683  0.64327960    -0.12900
C1617       C  0.85106336  0.02889480  0.62160683     0.01200
C1618       C  0.84058627  0.50105058  0.61005241    -0.01100
C1619       C  0.85060568  0.47398457  0.62145968    -0.12900
C1620       C  0.87237458  0.47277834  0.64343366     0.01100
H1621       H  0.88052654  0.04815529  0.65327607     0.14100
H1622       H  0.84112357  0.45349944  0.61348253     0.14100
C1623       C  0.88144205  0.44391243  0.65362007     0.35700
C1624       C  0.83969936  0.05764067  0.61370835     0.35600
N1625       N  0.88863897  0.42067638  0.66153105    -0.44600
N1626       N  0.83071339  0.08077544  0.60757650    -0.44600
C1627       C  0.49703931  0.15760113  0.88549627    -0.01000
C1628       C  0.52421376  0.14664893  0.87542268    -0.12900
C1629       C  0.52560620  0.12480131  0.85358439     0.01200
C1630       C  0.99858479  0.11407807  0.84038276    -0.01100
C1631       C  0.97145921  0.12473998  0.85083370    -0.12900
C1632       C  0.97009806  0.14615140  0.87303248     0.01100
H1633       H  0.54463381  0.15543541  0.88436651     0.14100
H1634       H  0.95100802  0.11660753  0.84135829     0.14100
C1635       C  0.94116375  0.15566571  0.88233994     0.35700
C1636       C  0.55446922  0.11459279  0.84485143     0.35600
N1637       N  0.91789052  0.16309387  0.88972176    -0.44600
N1638       N  0.57768857  0.10645711  0.83808125    -0.44600
C1639       C  0.99429906  0.34760821  0.88862432    -0.01000
C1640       C  0.52223494  0.36122743  0.88120700    -0.12900
C1641       C  0.52388533  0.38365464  0.85985087     0.01200
C1642       C  0.99711063  0.39209679  0.84459131    -0.01100
C1643       C  0.96980682  0.38056462  0.85384058    -0.12900
C1644       C  0.96810663  0.35883256  0.87581560     0.01100
H1645       H  0.54241889  0.35376539  0.89174527     0.14100
H1646       H  0.94956535  0.38807724  0.84345632     0.14100
C1647       C  0.93913130  0.34852850  0.88432640     0.35700
C1648       C  0.55231804  0.39705534  0.85425446     0.35600
N1649       N  0.91583717  0.34053079  0.89120418    -0.44600
N1650       N  0.57506776  0.40797847  0.85007169    -0.44600
C1651       C  0.99676312  0.34458418  0.60984093    -0.01000
C1652       C  0.52446511  0.35403237  0.62200613    -0.12900
C1653       C  0.52562447  0.37601585  0.64367052     0.01200
C1654       C  0.49919176  0.38912618  0.65397425    -0.01100
C1655       C  0.97163356  0.38031956  0.64119332    -0.12900
C1656       C  0.97057139  0.35893625  0.61889720     0.01100
H1657       H  0.54485501  0.34365861  0.61508062     0.14100
H1658       H  0.95125381  0.39064023  0.64822350     0.14100
C1659       C  0.94230100  0.35287011  0.60542145     0.35700
C1660       C  0.55438752  0.38432342  0.65474362     0.35600
N1661       N  0.91962906  0.34829973  0.59451426    -0.44600
N1662       N  0.57751680  0.39102853  0.66335451    -0.44600
C1663       C  0.50079971  0.15607410  0.60813673    -0.01000
C1664       C  0.47387417  0.14233635  0.61502315    -0.12900
C1665       C  0.47225169  0.11940814  0.63566623     0.01200
C1666       C  0.49796369  0.11056255  0.65094846    -0.01100
C1667       C  0.52512009  0.12348888  0.64328049    -0.12900
C1668       C  0.52687883  0.14578822  0.62193760     0.01100
H1669       H  0.95321355  0.15087590  0.60514371     0.14100
H1670       H  0.54512544  0.11680740  0.65461562     0.14100
C1671       C  0.55569367  0.15798136  0.61563832     0.35700
C1672       C  0.94316761  0.10678916  0.64106690     0.35600
N1673       N  0.57895119  0.16745342  0.61079864    -0.44600
N1674       N  0.92022203  0.09610956  0.64471650    -0.44600
N1675       N  0.55973405  0.98698354  0.21254313    -0.07000
N1676       N  0.57562313  0.97674290  0.19045514    -0.59100
N1677       N  0.56138228  0.51574249  0.28072794    -0.06700
N1678       N  0.57881753  0.52528437  0.30209671    -0.61300
N1679       N  0.56054822  0.98674834  0.28039485    -0.06300
N1680       N  0.57785760  0.97608182  0.30125799    -0.59100
N1681       N  0.55964827  0.51711463  0.21276189    -0.06000
N1682       N  0.57608487  0.52784271  0.19116281    -0.61600
C1683       C  0.58607119  0.50358117  0.17701914     0.95200
C1684       C  0.58889821  0.00036625  0.31455906     0.94900
N1685       N  0.98356504  0.56429693  0.28315307    -0.07200
N1686       N  0.97405302  0.58010795  0.30564280    -0.59700
N1687       N  0.51063503  0.56562674  0.21465952    -0.05300
N1688       N  0.52056867  0.58236253  0.19293638    -0.61000
N1689       N  0.98195499  0.56542867  0.21501932    -0.07200
N1690       N  0.97156014  0.58248616  0.19369180    -0.60000
N1691       N  0.51230847  0.56457971  0.28264406    -0.05000
N1692       N  0.52309508  0.58024012  0.30473223    -0.61000
Mn1693     Mn  0.53662513  0.54148578  0.24773050     1.18400
C1694       C  0.99908914  0.58975944  0.31896911     0.97200
C1695       C  0.49581867  0.59278017  0.17983940     0.97900
N1696       N  0.51128483  0.93807719  0.28124612    -0.07200
N1697       N  0.52157149  0.92152321  0.30301606    -0.63600
N1698       N  0.98201656  0.93777866  0.21323826    -0.06000
N1699       N  0.97174597  0.92081243  0.19187684    -0.64200
N1700       N  0.51064639  0.93812635  0.21308047    -0.06800
N1701       N  0.52070437  0.92164794  0.19132527    -0.63800
N1702       N  0.98247810  0.93825752  0.28129534    -0.05600
N1703       N  0.97236815  0.92175892  0.30316028    -0.64500
Mn1704     Mn  0.53617578  0.96183334  0.24681107     1.10700
C1705       C  0.99704513  0.91150191  0.31658921     0.98500
C1706       C  0.49597108  0.91121432  0.17819217     0.98500
N1707       N  0.93253404  0.51599837  0.21532144    -0.06800
N1708       N  0.91515814  0.52586208  0.19395896    -0.62100
N1709       N  0.93366747  0.98740769  0.28143868    -0.06100
N1710       N  0.91785186  0.97750438  0.30391524    -0.58900
N1711       N  0.93438762  0.51520789  0.28344179    -0.07400
N1712       N  0.91822624  0.52495302  0.30558851    -0.61700
N1713       N  0.93315954  0.98684833  0.21320398    -0.06400
N1714       N  0.91663730  0.97634794  0.19161122    -0.58900
Mn1715     Mn  0.95735533  0.54103167  0.24919612     1.20200
Mn1716     Mn  0.95710740  0.96189355  0.24732415     1.10100
Cl1717     Cl  0.49682879  0.50174039  0.24799693    -0.86900
C1718       C  0.90497322  0.50093069  0.18083120     0.95500
C1719       C  0.90836088  0.00233594  0.31747592     0.95300
N1720       N  0.98425833  0.71721299  0.06101087    -0.07000
N1721       N  0.97465360  0.69606015  0.07863655    -0.59100
N1722       N  0.51187939  0.78610224  0.06070939    -0.06700
N1723       N  0.52141051  0.80757246  0.07805385    -0.61300
N1724       N  0.98272555  0.78464634  0.06108692    -0.06300
N1725       N  0.97202365  0.80508564  0.07872091    -0.59100
N1726       N  0.51332044  0.71823293  0.06114042    -0.06000
N1727       N  0.52397120  0.69746256  0.07867973    -0.61600
C1728       C  0.49959430  0.68392671  0.08955271     0.95200
C1729       C  0.99625176  0.81901251  0.08923175     0.94900
N1730       N  0.55915442  0.78695561  0.48208948    -0.07200
N1731       N  0.57563977  0.80860002  0.47147741    -0.59700
N1732       N  0.56177891  0.71867618  0.01099060    -0.05300
N1733       N  0.57914610  0.69741817  0.02092471    -0.61000
N1734       N  0.56135639  0.71935015  0.48308946    -0.07200
N1735       N  0.57882111  0.69854172  0.47282987    -0.60000
N1736       N  0.56019310  0.78647786  0.01024317    -0.05000
N1737       N  0.57685098  0.80824488  0.01996715    -0.61000
Mn1738     Mn  0.53754628  0.75242119  0.03643600     1.18400
C1739       C  0.58592546  0.82237883  0.49595218     0.97200
C1740       C  0.59017686  0.68574542  0.49739849     0.97900
N1741       N  0.93303141  0.78382737  0.01280331    -0.07200
N1742       N  0.91617594  0.80496279  0.02345452    -0.63600
N1743       N  0.93401593  0.71561631  0.48418516    -0.06000
N1744       N  0.91699228  0.69424098  0.47414253    -0.64200
N1745       N  0.93419487  0.71596330  0.01259110    -0.06800
N1746       N  0.91744083  0.69433540  0.02285042    -0.63800
N1747       N  0.93245524  0.78336659  0.48388915    -0.05600
N1748       N  0.91530609  0.80474732  0.47397471    -0.64500
Mn1749     Mn  0.95796883  0.75032000  0.03746101     1.10700
C1750       C  0.90516215  0.81782113  0.49886539     0.98500
C1751       C  0.90716672  0.68059367  0.49891903     0.98500
N1752       N  0.51130787  0.71677859  0.43479443    -0.06800
N1753       N  0.52153031  0.69449109  0.41908737    -0.62100
N1754       N  0.98088224  0.78432727  0.43384903    -0.06100
N1755       N  0.97006568  0.80570949  0.41715620    -0.58900
N1756       N  0.50970321  0.78496275  0.43358456    -0.07400
N1757       N  0.51921377  0.80687042  0.41677608    -0.61700
N1758       N  0.98249744  0.71628592  0.43495220    -0.06400
N1759       N  0.97244161  0.69382819  0.41943335    -0.58900
Mn1760     Mn  0.53602492  0.75199519  0.45764786     1.20200
Mn1761     Mn  0.95680130  0.74995758  0.45851060     1.10100
Cl1762     Cl  0.99694882  0.75119872  0.49788955    -0.86900
C1763       C  0.49687646  0.68014937  0.40989756     0.95500
C1764       C  0.99429867  0.81967531  0.40649713     0.95300
N1765       N  0.78246915  0.93837754  0.48170465    -0.07000
N1766       N  0.80363983  0.92130041  0.47156310    -0.59100
N1767       N  0.71373978  0.93661548  0.00916141    -0.06700
N1768       N  0.69189432  0.91962172  0.01832921    -0.61300
N1769       N  0.71498368  0.93682074  0.48032599    -0.06300
N1770       N  0.69371987  0.92020374  0.46935764    -0.59100
N1771       N  0.78147496  0.93787670  0.01095910    -0.06000
N1772       N  0.80247634  0.92042774  0.02121413    -0.61600
C1773       C  0.81646552  0.91013933  0.49620144     0.95200
C1774       C  0.67980772  0.90944474  0.49354418     0.94900
N1775       N  0.71281224  0.51478911  0.06104775    -0.07200
N1776       N  0.69057161  0.52501777  0.07670682    -0.59700
N1777       N  0.77973221  0.98638214  0.06070539    -0.05300
N1778       N  0.80173869  0.97671334  0.07730222    -0.61000
N1779       N  0.78065235  0.51530038  0.06133113    -0.07200
N1780       N  0.80207632  0.52585794  0.07799105    -0.60000
N1781       N  0.71159831  0.98473775  0.05924266    -0.05000
N1782       N  0.68972077  0.97386183  0.07521061    -0.61000
Mn1783     Mn  0.74663588  0.96067623  0.03579890     1.18400
C1784       C  0.67665913  0.50043447  0.08659661     0.97200
C1785       C  0.81458340  0.00170502  0.08764273     0.97900
N1786       N  0.71413138  0.98653231  0.43214629    -0.07200
N1787       N  0.69262637  0.97607100  0.41546219    -0.63600
N1788       N  0.78056100  0.51625777  0.43440805    -0.06000
N1789       N  0.80233597  0.52683686  0.41811550    -0.64200
N1790       N  0.78220859  0.98843740  0.43324805    -0.06800
N1791       N  0.80477300  0.97925345  0.41733645    -0.63800
N1792       N  0.71256499  0.51548664  0.43440645    -0.05600
N1793       N  0.69084766  0.52555392  0.41772755    -0.64500
Mn1794     Mn  0.74855241  0.96191367  0.45612356     1.10700
C1795       C  0.67792188  0.50082967  0.40707141     0.98500
C1796       C  0.81763771  0.00451644  0.40764182     0.98500
N1797       N  0.78035021  0.56468914  0.01206388    -0.06800
N1798       N  0.80153854  0.58220740  0.02184816    -0.62100
N1799       N  0.71221587  0.56446363  0.48388759    -0.06100
N1800       N  0.69130483  0.58233565  0.47417820    -0.58900
N1801       N  0.71246362  0.56385162  0.01238525    -0.07400
N1802       N  0.69117612  0.58069684  0.02276991    -0.61700
N1803       N  0.77989339  0.56477599  0.48362122    -0.06400
N1804       N  0.80078964  0.58218582  0.47320162    -0.58900
Mn1805     Mn  0.74666907  0.54025266  0.03742036     1.20200
Mn1806     Mn  0.74621615  0.54086073  0.45837918     1.10100
Cl1807     Cl  0.74700144  0.00097563  0.49633807    -0.86900
C1808       C  0.81420085  0.59270215  0.49771010     0.95500
C1809       C  0.67873662  0.59288257  0.49919487     0.95300
C1810       C  0.84034390  0.88766391  0.49626336    -0.01000
C1811       C  0.85064509  0.87760544  0.02405619    -0.12900
C1812       C  0.87218601  0.85549775  0.02562953     0.01200
C1813       C  0.88366360  0.84256440  0.49889353    -0.01100
C1814       C  0.87210468  0.85206798  0.47166016    -0.12900
C1815       C  0.85082587  0.87432148  0.47004861     0.01100
H1816       H  0.84178522  0.88642733  0.04444823     0.14100
H1817       H  0.87946620  0.84184858  0.45132601     0.14100
C1818       C  0.84012246  0.88244438  0.44104271     0.35700
C1819       C  0.88177599  0.84610959  0.05465000     0.35600
N1820       N  0.83169400  0.88885629  0.41771306    -0.44600
N1821       N  0.88935672  0.83884108  0.07802132    -0.44600
C1822       C  0.83849553  0.61465184  0.49732593    -0.01000
C1823       C  0.85686886  0.61726234  0.02105460    -0.12900
C1824       C  0.87973603  0.63810914  0.02198490     0.01200
C1825       C  0.88459352  0.65688593  0.49873331    -0.01100
C1826       C  0.86598509  0.65466667  0.47400642    -0.12900
C1827       C  0.84307502  0.63398954  0.47309967     0.01100
H1828       H  0.85373438  0.60244826  0.03969326     0.14100
H1829       H  0.86879697  0.66972349  0.45549584     0.14100
C1830       C  0.82391396  0.63430109  0.44753688     0.35700
C1831       C  0.89882582  0.63823039  0.04753658     0.35600
N1832       N  0.80857585  0.63474236  0.42704700    -0.44600
N1833       N  0.91414470  0.63802468  0.06802196    -0.44600
C1834       C  0.60801157  0.84665221  0.49541055    -0.01000
C1835       C  0.62046845  0.85503173  0.46818167    -0.12900
C1836       C  0.64330628  0.87588242  0.46666341     0.01200
C1837       C  0.65438033  0.88870495  0.49297403    -0.01100
C1838       C  0.64048774  0.88151835  0.01914796    -0.12900
C1839       C  0.61785248  0.86061012  0.02055776     0.01100
H1840       H  0.61275393  0.84486406  0.44791425     0.14100
H1841       H  0.64775378  0.89193603  0.03945636     0.14100
C1842       C  0.60501944  0.85467535  0.04919369     0.35700
C1843       C  0.65490210  0.88315177  0.43777958     0.35600
N1844       N  0.59487251  0.85009120  0.07223739    -0.44600
N1845       N  0.66393154  0.88889204  0.41451276    -0.44600
C1846       C  0.65519862  0.61579703  0.49954837    -0.01000
C1847       C  0.64399223  0.62595930  0.47239562    -0.12900
C1848       C  0.62261265  0.64818314  0.47099964     0.01200
C1849       C  0.61211170  0.66129232  0.49734361    -0.01100
C1850       C  0.61915014  0.64664415  0.02310285    -0.12900
C1851       C  0.63993315  0.62378531  0.02452892     0.01100
H1852       H  0.65207010  0.61661181  0.45193729     0.14100
H1853       H  0.60959452  0.65471366  0.04349587     0.14100
C1854       C  0.64661581  0.61151118  0.05329723     0.35700
C1855       C  0.61201752  0.65669959  0.44206073     0.35600
N1856       N  0.65165634  0.60171162  0.07643824    -0.44600
N1857       N  0.60360065  0.66328811  0.41877450    -0.47000
C1858       C  0.88767515  0.00300144  0.34297051    -0.01000
C1859       C  0.87725756  0.52716827  0.35510234    -0.12900
C1860       C  0.85507753  0.52871681  0.37657965     0.01200
C1861       C  0.84308135  0.00531882  0.38688276    -0.01100
C1862       C  0.85857327  0.97902399  0.38152618    -0.12900
C1863       C  0.88087960  0.97771819  0.36013401     0.01100
H1864       H  0.88671988  0.54754782  0.34668848     0.14100
H1865       H  0.85312000  0.95921973  0.39395633     0.14100
C1866       C  0.89665922  0.95027479  0.35684932     0.35700
C1867       C  0.84649285  0.55760941  0.38673041     0.35600
N1868       N  0.90939124  0.92829188  0.35451341    -0.44600
N1869       N  0.83976646  0.58086246  0.39474161    -0.44600
C1870       C  0.65385960  0.50059734  0.38479180    -0.01000
C1871       C  0.65100965  0.97577224  0.36570531    -0.12900
C1872       C  0.63007153  0.97523157  0.34299923     0.01200
C1873       C  0.61097860  0.99957224  0.33873625    -0.01100
C1874       C  0.61390266  0.52408231  0.35734242    -0.12900
C1875       C  0.63482506  0.52489798  0.38016394     0.01100
H1876       H  0.66596275  0.95725388  0.36819781     0.14100
H1877       H  0.59942323  0.54284314  0.35404181     0.14100
C1878       C  0.63569337  0.55074405  0.39870148     0.35700
C1879       C  0.62996503  0.94998341  0.32360457     0.35600
N1880       N  0.63615061  0.57153835  0.41346421    -0.44600
N1881       N  0.63006216  0.92973032  0.30809131    -0.44600
C1882       C  0.65128714  0.50103612  0.10740925    -0.01000
C1883       C  0.64330725  0.52818810  0.11998944    -0.12900
C1884       C  0.62155620  0.52993062  0.14186898     0.01200
C1885       C  0.60729720  0.50391731  0.15192430    -0.01100
C1886       C  0.62051996  0.97382766  0.14463473    -0.12900
C1887       C  0.64218403  0.97202287  0.12269146     0.01100
H1888       H  0.65462958  0.54823394  0.11328182     0.14100
H1889       H  0.61513606  0.95413237  0.15725455     0.14100
C1890       C  0.65609125  0.94375067  0.11820349     0.35700
C1891       C  0.61514779  0.55871567  0.15384771     0.35600
N1892       N  0.66712659  0.92100072  0.11480633    -0.44600
N1893       N  0.61015473  0.58189676  0.16324956    -0.44600
C1894       C  0.88350237  0.50040380  0.15592743    -0.01000
C1895       C  0.87462377  0.52731893  0.14328429    -0.12900
C1896       C  0.85352412  0.52833159  0.12064985     0.01200
C1897       C  0.83982383  0.00215374  0.10881383    -0.01100
C1898       C  0.85202113  0.97515978  0.11809626    -0.12900
C1899       C  0.87432993  0.97400296  0.13958516     0.01100
H1900       H  0.88413886  0.54782375  0.15114909     0.14100
H1901       H  0.84383309  0.95466357  0.10883690     0.14100
C1902       C  0.88559314  0.94527416  0.14769143     0.35700
C1903       C  0.84633727  0.55690446  0.10835277     0.35600
N1904       N  0.89450863  0.92215863  0.15400641    -0.44600
N1905       N  0.84080396  0.57987783  0.09853678    -0.44600
C1906       C  0.49693442  0.65448710  0.38934309    -0.01000
C1907       C  0.52412535  0.64306139  0.37979503    -0.12900
C1908       C  0.52554154  0.62119557  0.35795429     0.01200
C1909       C  0.99939839  0.61043758  0.34450189    -0.01100
C1910       C  0.97224459  0.62102349  0.35489347    -0.12900
C1911       C  0.97078175  0.64280973  0.37665915     0.01100
H1912       H  0.54452183  0.65171465  0.38890638     0.14100
H1913       H  0.95182133  0.61283974  0.34540048     0.14100
C1914       C  0.94179424  0.65279997  0.38523623     0.35700
C1915       C  0.55438436  0.61085962  0.34927846     0.35600
N1916       N  0.91844739  0.66065655  0.39189543    -0.44600
N1917       N  0.57758394  0.60268739  0.34248092    -0.44600
C1918       C  0.99393710  0.84475550  0.38512188    -0.01000
C1919       C  0.52088212  0.85849373  0.37819218    -0.12900
C1920       C  0.52252593  0.88075673  0.35666735     0.01200
C1921       C  0.99664963  0.88981316  0.34136420    -0.01100
C1922       C  0.96964509  0.87645513  0.34888485    -0.12900
C1923       C  0.96799116  0.85427459  0.37047041     0.01100
H1924       H  0.54102569  0.85145699  0.38910065     0.14100
H1925       H  0.94964698  0.88280359  0.33732161     0.14100
C1926       C  0.93937524  0.84139407  0.37625631     0.35700
C1927       C  0.55113117  0.89351344  0.35059437     0.35600
N1928       N  0.91631499  0.83127035  0.38070944    -0.44600
N1929       N  0.57415011  0.90360732  0.34589811    -0.44600
C1930       C  0.99547852  0.84308148  0.11144918    -0.01000
C1931       C  0.51901819  0.86366440  0.11275774    -0.12900
C1932       C  0.51930581  0.88648735  0.13364039     0.01200
C1933       C  0.49582219  0.88919302  0.15400491    -0.01100
C1934       C  0.97228454  0.86910294  0.15237365    -0.12900
C1935       C  0.97170015  0.84644433  0.13144218     0.01100
H1936       H  0.53716882  0.86178587  0.09728725     0.14100
H1937       H  0.95422052  0.87092937  0.16797615     0.14100
C1938       C  0.94691353  0.82634765  0.13208415     0.35700
C1939       C  0.54328428  0.90753108  0.13272238     0.35600
N1940       N  0.92698178  0.81033222  0.13281999    -0.44600
N1941       N  0.56236017  0.92454266  0.13171076    -0.44600
C1942       C  0.49956082  0.65962262  0.11166825    -0.01000
C1943       C  0.47227039  0.64732007  0.11991955    -0.12900
C1944       C  0.47034469  0.62490464  0.14117508     0.01200
C1945       C  0.49622852  0.61469989  0.15535654    -0.01100
C1946       C  0.52360348  0.62661681  0.14673416    -0.12900
C1947       C  0.52554835  0.64876893  0.12518179     0.01100
H1948       H  0.95217279  0.65526036  0.11001691     0.14100
H1949       H  0.54375139  0.61896929  0.15721061     0.14100
C1950       C  0.55453023  0.66011023  0.11813181     0.35700
C1951       C  0.94160772  0.61309421  0.14801815     0.35600
N1952       N  0.57786566  0.66904286  0.11268585    -0.44600
N1953       N  0.91833603  0.60368109  0.15289854    -0.44600
N1954       N  0.56015541  0.98693592  0.71219503    -0.07000
N1955       N  0.57600835  0.97659973  0.69010030    -0.59100
N1956       N  0.56151692  0.51557248  0.78172395    -0.06700
N1957       N  0.57902666  0.52534279  0.80294506    -0.61300
N1958       N  0.56117995  0.98716552  0.78009464    -0.06300
N1959       N  0.57824722  0.97660262  0.80118871    -0.59100
N1960       N  0.56059205  0.51626064  0.71370921    -0.06000
N1961       N  0.57686042  0.52685526  0.69192974    -0.61600
C1962       C  0.58707177  0.50250597  0.67809007     0.95200
C1963       C  0.58928946  0.00094975  0.81435227     0.94900
N1964       N  0.98272995  0.56376248  0.78306112    -0.07200
N1965       N  0.97284714  0.57982683  0.80521612    -0.59700
N1966       N  0.51117484  0.56464731  0.71457153    -0.05300
N1967       N  0.52113548  0.58165507  0.69304770    -0.61000
N1968       N  0.98214016  0.56447693  0.71499575    -0.07200
N1969       N  0.97189687  0.58161628  0.69368472    -0.60000
N1970       N  0.51196478  0.56404324  0.78251821    -0.05000
N1971       N  0.52235772  0.58017773  0.80443287    -0.61000
Mn1972     Mn  0.53695893  0.54086426  0.74815517     1.18400
C1973       C  0.99767880  0.58968205  0.81876963     0.97200
C1974       C  0.49637957  0.59192392  0.67980546     0.97900
N1975       N  0.51180943  0.93870947  0.78175544    -0.07200
N1976       N  0.52200555  0.92262565  0.80394874    -0.63600
N1977       N  0.98145592  0.93801480  0.71387357    -0.06000
N1978       N  0.97100781  0.92094970  0.69268385    -0.64200
N1979       N  0.51087627  0.93812088  0.71350019    -0.06800
N1980       N  0.52070754  0.92141850  0.69181845    -0.63800
N1981       N  0.98229286  0.93907594  0.78187540    -0.05600
N1982       N  0.97214136  0.92312475  0.80409451    -0.64500
Mn1983     Mn  0.53666948  0.96203590  0.74686504     1.10700
C1984       C  0.99677354  0.91309244  0.81772277     0.98500
C1985       C  0.49582333  0.91103302  0.67892622     0.98500
N1986       N  0.93296785  0.51484595  0.71475560    -0.06800
N1987       N  0.91588693  0.52464526  0.69313802    -0.62100
N1988       N  0.93359025  0.98799915  0.78199350    -0.06100
N1989       N  0.91786410  0.97810953  0.80452847    -0.58900
N1990       N  0.93381779  0.51443386  0.78301206    -0.07400
N1991       N  0.91782755  0.52416885  0.80530014    -0.61700
N1992       N  0.93280549  0.98717910  0.71377770    -0.06400
N1993       N  0.91643985  0.97664922  0.69208539    -0.58900
Mn1994     Mn  0.95714153  0.54014855  0.74890668     1.20200
Mn1995     Mn  0.95681799  0.96238424  0.74788973     1.10100
Cl1996     Cl  0.49747824  0.50084316  0.74816182    -0.86900
C1997       C  0.90591397  0.49970482  0.67988640     0.95500
C1998       C  0.90845646  0.00293400  0.81813741     0.95300
N1999       N  0.98416027  0.71731721  0.56199737    -0.07000
N2000       N  0.97468329  0.69599287  0.57948538    -0.59100
N2001       N  0.51098569  0.78621281  0.56148692    -0.06700
N2002       N  0.52035581  0.80769783  0.57885106    -0.61300
N2003       N  0.98190375  0.78474671  0.56172643    -0.06300
N2004       N  0.97095308  0.80508288  0.57934645    -0.59100
N2005       N  0.51317637  0.71839163  0.56199255    -0.06000
N2006       N  0.52397786  0.69755490  0.57937506    -0.61600
C2007       C  0.49969320  0.68364587  0.59000551     0.95200
C2008       C  0.99504951  0.81921737  0.58990441     0.94900
N2009       N  0.55985822  0.78627145  0.98117455    -0.07200
N2010       N  0.57628072  0.80795794  0.97056694    -0.59700
N2011       N  0.56191350  0.71957482  0.51215622    -0.05300
N2012       N  0.57981564  0.69883365  0.52220505    -0.61000
N2013       N  0.56115643  0.71856320  0.98191211    -0.07200
N2014       N  0.57806197  0.69732197  0.97155039    -0.60000
N2015       N  0.55938510  0.78726242  0.51116388    -0.05000
N2016       N  0.57602820  0.80905927  0.52087018    -0.61000
Mn2017     Mn  0.53708465  0.75291888  0.53736424     1.18400
C2018       C  0.58663850  0.82164245  0.99505476     0.97200
C2019       C  0.58915081  0.68414852  0.99605952     0.97900
N2020       N  0.93274697  0.78317489  0.51295483    -0.07200
N2021       N  0.91587581  0.80439519  0.52338184    -0.63600
N2022       N  0.93356898  0.71640966  0.98353350    -0.06000
N2023       N  0.91641003  0.69517262  0.97341825    -0.64200
N2024       N  0.93447536  0.71537703  0.51324983    -0.06800
N2025       N  0.91775538  0.69376492  0.52358555    -0.63800
N2026       N  0.93255387  0.78418250  0.98374756    -0.05600
N2027       N  0.91531171  0.80559103  0.97405921    -0.64500
Mn2028     Mn  0.95771319  0.75006000  0.53806024     1.10700
C2029       C  0.90526770  0.81850399  0.99907522     0.98500
C2030       C  0.90664709  0.68138216  0.99814085     0.98500
N2031       N  0.51093995  0.71707626  0.93368864    -0.06800
N2032       N  0.52082049  0.69485698  0.91768006    -0.62100
N2033       N  0.98074089  0.78510289  0.93364356    -0.06100
N2034       N  0.96990984  0.80689725  0.91753983    -0.58900
N2035       N  0.51008285  0.78536486  0.93302803    -0.07400
N2036       N  0.51962065  0.80758763  0.91661566    -0.61700
N2037       N  0.98170950  0.71705461  0.93405685    -0.06400
N2038       N  0.97131896  0.69472682  0.91856642    -0.58900
Mn2039     Mn  0.53618587  0.75179174  0.95668165     1.20200
Mn2040     Mn  0.95650633  0.75075085  0.95803487     1.10100
Cl2041     Cl  0.99698376  0.75131131  0.99708324    -0.86900
C2042       C  0.49595516  0.68093564  0.90842290     0.95500
C2043       C  0.99411960  0.82088998  0.90691571     0.95300
N2044       N  0.78202940  0.93858812  0.98189734    -0.07000
N2045       N  0.80336755  0.92164957  0.97184870    -0.59100
N2046       N  0.71436430  0.93633768  0.50938423    -0.06700
N2047       N  0.69258502  0.91934939  0.51875520    -0.61300
N2048       N  0.71454011  0.93720081  0.98011044    -0.06300
N2049       N  0.69333485  0.92065284  0.96893643    -0.59100
N2050       N  0.78210438  0.93775981  0.51077144    -0.06000
N2051       N  0.80307413  0.92022449  0.52094050    -0.61600
C2052       C  0.81612011  0.91050698  0.99654595     0.95200
C2053       C  0.67927782  0.90982797  0.99299996     0.94900
N2054       N  0.71252248  0.51429221  0.56101200    -0.07200
N2055       N  0.69022517  0.52433760  0.57670045    -0.59700
N2056       N  0.78056928  0.98644877  0.56038134    -0.05300
N2057       N  0.80245284  0.97686240  0.57718331    -0.61000
N2058       N  0.78044972  0.51482057  0.56156408    -0.07200
N2059       N  0.80196147  0.52524101  0.57820533    -0.60000
N2060       N  0.71245718  0.98476105  0.55917134    -0.05000
N2061       N  0.69056026  0.97390768  0.57511588    -0.61000
Mn2062     Mn  0.74739107  0.96061456  0.53570774     1.18400
C2063       C  0.67631498  0.49965060  0.58635594     0.97200
C2064       C  0.81521464  0.00190889  0.58749017     0.97900
N2065       N  0.71397243  0.98706615  0.93221845    -0.07200
N2066       N  0.69243919  0.97672192  0.91551592    -0.63600
N2067       N  0.78089549  0.51554270  0.93453445    -0.06000
N2068       N  0.80285163  0.52603283  0.91842542    -0.64200
N2069       N  0.78204845  0.98886342  0.93362291    -0.06800
N2070       N  0.80466211  0.97970929  0.91776687    -0.63800
N2071       N  0.71287277  0.51460550  0.93450911    -0.05600
N2072       N  0.69103014  0.52458306  0.91798469    -0.64500
Mn2073     Mn  0.74826094  0.96229392  0.95622083     1.10700
C2074       C  0.67812054  0.49979440  0.90754924     0.98500
C2075       C  0.81759851  0.00498339  0.90820182     0.98500
N2076       N  0.78033788  0.56449482  0.51269020    -0.06800
N2077       N  0.80164619  0.58177370  0.52265336    -0.62100
N2078       N  0.71208937  0.56381762  0.98333130    -0.06100
N2079       N  0.69049064  0.58071292  0.97338434    -0.58900
N2080       N  0.71261004  0.56413019  0.51294532    -0.07400
N2081       N  0.69202849  0.58167476  0.52355430    -0.61700
N2082       N  0.77989452  0.56471927  0.98300305    -0.06400
N2083       N  0.80065420  0.58220583  0.97239902    -0.58900
Mn2084     Mn  0.74654390  0.53999299  0.53777091     1.20200
Mn2085     Mn  0.74637005  0.54028554  0.95812339     1.10100
Cl2086     Cl  0.74646428  0.00117875  0.99659650    -0.86900
C2087       C  0.81400950  0.59302315  0.99680964     0.95500
C2088       C  0.67744696  0.59103372  0.99825101     0.95300
C2089       C  0.84022306  0.88823424  0.99672573    -0.01000
C2090       C  0.85238003  0.87864243  0.52349230    -0.12900
C2091       C  0.87388585  0.85651623  0.52507272     0.01200
C2092       C  0.88368315  0.84320864  0.99930661    -0.01100
C2093       C  0.87378966  0.85438025  0.97203435    -0.12900
C2094       C  0.85249704  0.87663737  0.97045718     0.01100
H2095       H  0.84490720  0.88883873  0.54379649     0.14100
H2096       H  0.88255992  0.84554706  0.95160639     0.14100
C2097       C  0.84382783  0.88676665  0.94139665     0.35700
C2098       C  0.88543542  0.84901928  0.55392121     0.35600
N2099       N  0.83704816  0.89479908  0.91802613    -0.44600
N2100       N  0.89461237  0.84327575  0.57713746    -0.44600
C2101       C  0.83826400  0.61503766  0.99630922    -0.01000
C2102       C  0.85739211  0.61653230  0.52189387    -0.12900
C2103       C  0.88041294  0.63723566  0.52272139     0.01200
C2104       C  0.88415292  0.65755381  0.99787000    -0.01100
C2105       C  0.86587286  0.65495582  0.97291494    -0.12900
C2106       C  0.84304661  0.63415175  0.97194129     0.01100
H2107       H  0.85441433  0.60152432  0.54040147     0.14100
H2108       H  0.86884920  0.66982679  0.95428156     0.14100
C2109       C  0.82413719  0.63415690  0.94619232     0.35700
C2110       C  0.90000324  0.63694921  0.54791135     0.35600
N2111       N  0.80900746  0.63439953  0.92554389    -0.44600
N2112       N  0.91579489  0.63645728  0.56803747    -0.44600
C2113       C  0.60837726  0.84618083  0.99452714    -0.01000
C2114       C  0.62102047  0.85447519  0.96736114    -0.12900
C2115       C  0.64355896  0.87564147  0.96591473     0.01200
C2116       C  0.65403552  0.88892737  0.99223182    -0.01100
C2117       C  0.64109394  0.88116472  0.51999609    -0.12900
C2118       C  0.61805969  0.86066662  0.52146483     0.01100
H2119       H  0.61375125  0.84394429  0.94711665     0.14100
H2120       H  0.64879813  0.89123853  0.54031760     0.14100
C2121       C  0.60532405  0.85480082  0.55015977     0.35700
C2122       C  0.65558245  0.88262647  0.93713661     0.35600
N2123       N  0.59520110  0.85030058  0.57323146    -0.44600
N2124       N  0.66497078  0.88809625  0.91394871    -0.44600
C2125       C  0.65325312  0.61327816  0.99828408    -0.01000
C2126       C  0.64399538  0.62518910  0.97109561    -0.12900
C2127       C  0.62277979  0.64758535  0.96960895     0.01200
C2128       C  0.61050825  0.65913425  0.99593189    -0.01100
C2129       C  0.62308779  0.65093993  0.52455148    -0.12900
C2130       C  0.64418433  0.62839108  0.52595174     0.01100
H2131       H  0.65364336  0.61725149  0.95070320     0.14100
H2132       H  0.61520195  0.66051613  0.54500236     0.14100
C2133       C  0.65388573  0.61892350  0.55491559     0.35700
C2134       C  0.61441036  0.65808721  0.94059365     0.35600
N2135       N  0.66144647  0.61142723  0.57822652    -0.44600
N2136       N  0.60778168  0.66619665  0.91720526    -0.47000
C2137       C  0.88782377  0.00354487  0.84368834    -0.01000
C2138       C  0.87822668  0.52619648  0.85605249    -0.12900
C2139       C  0.85629898  0.52772180  0.87779595     0.01200
C2140       C  0.84314955  0.00578858  0.88754738    -0.01100
C2141       C  0.85830576  0.97937603  0.88181553    -0.12900
C2142       C  0.88068590  0.97810932  0.86049671     0.01100
H2143       H  0.88801122  0.54655216  0.84795558     0.14100
H2144       H  0.85255663  0.95945537  0.89391586     0.14100
C2145       C  0.89622076  0.95054997  0.85697123     0.35700
C2146       C  0.84841061  0.55655311  0.88865233     0.35600
N2147       N  0.90878133  0.92848470  0.85447072    -0.44600
N2148       N  0.84226420  0.57977195  0.89720562    -0.44600
C2149       C  0.65421074  0.49964218  0.88529584    -0.01000
C2150       C  0.65042059  0.97618971  0.86645803    -0.12900
C2151       C  0.62966193  0.97559527  0.84362971     0.01200
C2152       C  0.61114372  0.00024416  0.83869033    -0.01100
C2153       C  0.61247536  0.52239003  0.86008677    -0.12900
C2154       C  0.63328586  0.52264259  0.88301295     0.01100
H2155       H  0.66489424  0.95736931  0.86948980     0.14100
H2156       H  0.59633516  0.53997609  0.85860818     0.14100
C2157       C  0.63210583  0.54634886  0.90421793     0.35700
C2158       C  0.62924730  0.94995753  0.82475509     0.35600
N2159       N  0.63102147  0.56535532  0.92119445    -0.44600
N2160       N  0.62909559  0.92940005  0.80964761    -0.44600
C2161       C  0.65115101  0.50009789  0.60743291    -0.01000
C2162       C  0.64366544  0.52712885  0.62053172    -0.12900
C2163       C  0.62238685  0.52876485  0.64284136     0.01200
C2164       C  0.60796115  0.50278406  0.65272939    -0.01100
C2165       C  0.62117572  0.97372541  0.64432301    -0.12900
C2166       C  0.64304822  0.97203390  0.62256321     0.01100
H2167       H  0.65506778  0.54717471  0.61392697     0.14100
H2168       H  0.61590953  0.95405747  0.65703676     0.14100
C2169       C  0.65743891  0.94393891  0.61849674     0.35700
C2170       C  0.61673363  0.55741541  0.65550244     0.35600
N2171       N  0.66891618  0.92135954  0.61543780    -0.44600
N2172       N  0.61236364  0.58048867  0.66546120    -0.44600
C2173       C  0.88446913  0.49925686  0.65492092    -0.01000
C2174       C  0.87529061  0.52626080  0.64267545    -0.12900
C2175       C  0.85387724  0.52742715  0.62034080     0.01200
C2176       C  0.84023144  0.00246085  0.60888471    -0.01100
C2177       C  0.85301552  0.97555103  0.61758982    -0.12900
C2178       C  0.87517035  0.97441069  0.63922446     0.01100
H2179       H  0.88475414  0.54673979  0.65068277     0.14100
H2180       H  0.84540153  0.95509947  0.60776509     0.14100
C2181       C  0.88700347  0.94577654  0.64683113     0.35700
C2182       C  0.84636493  0.55612024  0.60853236     0.35600
N2183       N  0.89635666  0.92273639  0.65276627    -0.44600
N2184       N  0.84059664  0.57920589  0.59912957    -0.44600
C2185       C  0.49566993  0.65542910  0.88770173    -0.01000
C2186       C  0.52266604  0.64252013  0.87964935    -0.12900
C2187       C  0.52405345  0.62046507  0.85802399     0.01200
C2188       C  0.99769158  0.61067042  0.84402507    -0.01100
C2189       C  0.97058901  0.62246180  0.85319553    -0.12900
C2190       C  0.96916939  0.64449045  0.87473857     0.01100
H2191       H  0.54298534  0.65007368  0.88986321     0.14100
H2192       H  0.95025646  0.61504770  0.84290786     0.14100
C2193       C  0.94033520  0.65582263  0.88207584     0.35700
C2194       C  0.55272663  0.60858152  0.85092002     0.35600
N2195       N  0.91713214  0.66477029  0.88779126    -0.44600
N2196       N  0.57578406  0.59919169  0.84532781    -0.44600
C2197       C  0.99359085  0.84629833  0.88599988    -0.01000
C2198       C  0.52058580  0.86174629  0.88091831    -0.12900
C2199       C  0.52210805  0.88435459  0.85971152     0.01200
C2200       C  0.99618830  0.89167394  0.84267382    -0.01100
C2201       C  0.96953332  0.87698905  0.84880033    -0.12900
C2202       C  0.96794272  0.85460307  0.87013539     0.01100
H2203       H  0.54037273  0.85590052  0.89311927     0.14100
H2204       H  0.94986048  0.88231726  0.83619209     0.14100
C2205       C  0.93984545  0.84000048  0.87413199     0.35700
C2206       C  0.54991263  0.89952365  0.85589199     0.35600
N2207       N  0.91721240  0.82846801  0.87712204    -0.44600
N2208       N  0.57223469  0.91167393  0.85305947    -0.44600
C2209       C  0.99416707  0.84329907  0.61206230    -0.01000
C2210       C  0.51805786  0.86343628  0.61337050    -0.12900
C2211       C  0.51867249  0.88617766  0.63428663     0.01200
C2212       C  0.49535589  0.88899354  0.65480293    -0.01100
C2213       C  0.97110399  0.86932968  0.65303026    -0.12900
C2214       C  0.97039826  0.84671241  0.63204913     0.01100
H2215       H  0.53611069  0.86146492  0.59779119     0.14100
H2216       H  0.95305093  0.87123211  0.66863556     0.14100
C2217       C  0.94557368  0.82666254  0.63270021     0.35700
C2218       C  0.54287699  0.90696040  0.63330505     0.35600
N2219       N  0.92560878  0.81068890  0.63348471    -0.44600
N2220       N  0.56216328  0.92373122  0.63225749    -0.44600
C2221       C  0.49977092  0.65913828  0.61191589    -0.01000
C2222       C  0.47242949  0.64772084  0.62120454    -0.12900
C2223       C  0.47058619  0.62528286  0.64243122     0.01200
C2224       C  0.49665329  0.61401376  0.65544760    -0.01100
C2225       C  0.52405716  0.62499524  0.64573938    -0.12900
C2226       C  0.52589409  0.64722310  0.62422532     0.01100
H2227       H  0.95224449  0.65648642  0.61225515     0.14100
H2228       H  0.54432576  0.61647205  0.65525363     0.14100
C2229       C  0.55494363  0.65733671  0.61574079     0.35700
C2230       C  0.94169806  0.61457342  0.65041096     0.35600
N2231       N  0.57833803  0.66525127  0.60910913    -0.44600
N2232       N  0.91831710  0.60593721  0.65612956    -0.44600
loop_ 
_geom_bond_atom_site_label_1 
_geom_bond_atom_site_label_2 
_geom_bond_distance 
_geom_bond_site_symmetry_2 
_ccdc_geom_bond_type 
N1            N2   1.320       .  A
N1          N565   1.314       .  A
N1          Mn30   2.200       .  S
N2          C567   1.355       .  A
N3            N4   1.321       .  A
N3          N563   1.314   1_545  A
N3          Mn19   2.200       .  S
N4          C568   1.355       .  A
N5            N6   1.318       .  A
N5          N561   1.314       .  A
N5          Mn30   2.193       .  S
N6           C10   1.352       .  A
N7            N8   1.321       .  A
N7          N559   1.314   1_545  A
N7          Mn19   2.203       .  S
N8            C9   1.355       .  A
C9          N560   1.354   1_545  A
C9          C211   1.488       .  S
C10         N562   1.355       .  A
C10         C199   1.483       .  S
N11          N12   1.322       .  A
N11        N1133   1.315       .  A
N11         Mn41   2.212       .  S
N12          C20   1.357       .  A
N13          N14   1.316       .  A
N13        N1131   1.314   1_455  A
N13         Mn19   2.185       .  S
N14          C21   1.351   1_455  A
N15          N16   1.319       .  A
N15        N1129   1.314       .  A
N15         Mn41   2.196       .  S
N16        C1137   1.354       .  A
N17          N18   1.319       .  A
N17        N1127   1.315   1_455  A
N17         Mn19   2.200       .  S
N18        C1136   1.353   1_455  A
Mn19        Cl43   2.546   1_455  S
C20        N1134   1.353       .  A
C20         C235   1.493       .  S
C21        N1132   1.353       .  A
C21         C271   1.478       .  S
N22          N23   1.319       .  A
N22        N1144   1.314   1_455  A
N22         Mn30   2.198       .  S
N23        C1147   1.354   1_455  A
N24          N25   1.323       .  A
N24        N1142   1.315       .  A
N24         Mn42   2.213       .  S
N25        C1148   1.357       .  A
N26          N27   1.318       .  A
N26        N1140   1.314   1_455  A
N26         Mn30   2.194       .  S
N27          C32   1.352   1_455  A
N28          N29   1.319       .  A
N28        N1138   1.314       .  A
N28         Mn42   2.192       .  S
N29          C31   1.354       .  A
Mn30       Cl601   2.542   1_455  S
C31        N1139   1.353       .  A
C31         C247   1.486       .  S
C32        N1141   1.358       .  A
C32         C259   1.493       .  S
N33          N34   1.322       .  A
N33         N597   1.315   1_545  A
N33         Mn41   2.213       .  S
N34          C44   1.357       .  A
N35          N36   1.320       .  A
N35         N595   1.314       .  A
N35         Mn42   2.205       .  S
N36          C45   1.354       .  A
N37          N38   1.319       .  A
N37         N593   1.315   1_545  A
N37         Mn41   2.197       .  S
N38         C603   1.354       .  A
N39          N40   1.317       .  A
N39         N591   1.315       .  A
N39         Mn42   2.189       .  S
N40         C602   1.351       .  A
Mn41      Cl1159   2.547       .  S
Mn42      Cl1717   2.545       .  S
Cl43       Mn588   2.541   1_645  S
Cl43      Mn1157   2.547       .  S
Cl43      Mn1716   2.545   1_545  S
C44         N598   1.353   1_545  A
C44         C220   1.492       .  S
C45         N596   1.354       .  A
C45         C184   1.490       .  S
N46          N47   1.318       .  A
N46        N1168   1.314       .  A
N46         Mn75   2.198       .  S
N47        C1170   1.355       .  A
N48          N49   1.321       .  A
N48        N1166   1.314   1_455  A
N48         Mn64   2.210       .  S
N49        C1171   1.357   1_455  A
N50          N51   1.320       .  A
N50        N1164   1.314       .  A
N50         Mn75   2.197       .  S
N51          C55   1.353       .  A
N52          N53   1.318       .  A
N52        N1162   1.314   1_455  A
N52         Mn64   2.182       .  S
N53          C54   1.351       .  A
C54        N1163   1.354   1_455  A
C54         C268   1.479       .  S
C55        N1165   1.357       .  A
C55         C256   1.492       .  S
N56          N57   1.321       .  A
N56         N341   1.314       .  A
N56         Mn86   2.203       .  S
N57          C65   1.356       .  A
N58          N59   1.320       .  A
N58         N339   1.314   1_554  A
N58         Mn64   2.205       .  S
N59         C345   1.356   1_554  A
N60          N61   1.317       .  A
N60         N337   1.314       .  A
N60         Mn86   2.190       .  S
N61          C66   1.352       .  A
N62          N63   1.315       .  A
N62         N335   1.314   1_554  A
N62         Mn64   2.179       .  S
N63         C344   1.349   1_554  A
Mn64      Cl1483   2.543   1_454  S
C65         N342   1.349       .  A
C65         C160   1.482       .  S
C66         N338   1.355       .  A
C66         C175   1.485       .  S
N67          N68   1.319       .  A
N67         N352   1.315   1_554  A
N67         Mn75   2.198       .  S
N68         C355   1.353   1_554  A
N69          N70   1.320       .  A
N69         N350   1.315       .  A
N69         Mn87   2.203       .  S
N70          C77   1.354       .  A
N71          N72   1.319       .  A
N71         N348   1.315   1_554  A
N71         Mn75   2.196       .  S
N72         C356   1.353   1_554  A
N73          N74   1.321       .  A
N73         N346   1.315       .  A
N73         Mn87   2.201       .  S
N74          C76   1.354       .  A
Mn75       Cl367   2.541   1_554  S
C76         N347   1.352       .  A
C76         C139   1.483       .  S
C77         N351   1.354       .  A
C77         C151   1.486       .  S
N78          N79   1.322       .  A
N78        N1200   1.315   1_455  A
N78         Mn86   2.210       .  S
N79          C89   1.357   1_455  A
N80          N81   1.320       .  A
N80        N1198   1.314       .  A
N80         Mn87   2.202       .  S
N81          C90   1.355       .  A
N82          N83   1.318       .  A
N82        N1196   1.314   1_455  A
N82         Mn86   2.190       .  S
N83        C1206   1.353   1_455  A
N84          N85   1.319       .  A
N84        N1194   1.315       .  A
N84         Mn87   2.201       .  S
N85        C1205   1.353       .  A
Mn86      Cl1204   2.545   1_455  S
Mn87        Cl88   2.544       .  S
Cl88      Mn1459   2.544       .  S
Cl88       Mn354   2.542       .  S
Cl88      Mn1202   2.545       .  S
C89        N1201   1.353       .  A
C89         C232   1.492       .  S
C90        N1199   1.353       .  A
C90         C244   1.485       .  S
N91          N92   1.321       .  A
N91         N376   1.315       .  A
N91        Mn120   2.208       .  S
N92          C99   1.354       .  A
N93          N94   1.319       .  A
N93         N374   1.314   1_554  A
N93        Mn109   2.201       .  S
N94         C379   1.355   1_554  A
N95          N96   1.318       .  A
N95         N372   1.314       .  A
N95        Mn120   2.189       .  S
N96         C100   1.352       .  A
N97          N98   1.320       .  A
N97         N370   1.315   1_554  A
N97        Mn109   2.205       .  S
N98         C378   1.354   1_554  A
C99         N377   1.354       .  A
C99         C136   1.486       .  S
C100        N373   1.354       .  A
C100        C163   1.482       .  S
N101        N102   1.320       .  A
N101        N665   1.315   1_545  A
N101       Mn131   2.202       .  S
N102        C110   1.354   1_545  A
N103        N104   1.321       .  A
N103        N663   1.315       .  A
N103       Mn109   2.205       .  S
N104        C111   1.356       .  A
N105        N106   1.319       .  A
N105        N661   1.315   1_545  A
N105       Mn131   2.196       .  S
N106        C669   1.353       .  A
N107        N108   1.321       .  A
N107        N659   1.314       .  A
N107       Mn109   2.205       .  S
N108        C668   1.355       .  A
Mn109      Cl412   2.548   1_554  S
C110        N666   1.354       .  A
C110        C208   1.489       .  S
C111        N664   1.352       .  A
C111        C223   1.488       .  S
N112        N113   1.320       .  A
N112        N676   1.315       .  A
N112       Mn120   2.205       .  S
N113        C679   1.354       .  A
N114        N115   1.319       .  A
N114        N674   1.314   1_545  A
N114       Mn132   2.203       .  S
N115        C680   1.354       .  A
N116        N117   1.319       .  A
N116        N672   1.315       .  A
N116       Mn120   2.194       .  S
N117        C122   1.354       .  A
N118        N119   1.319       .  A
N118        N670   1.314   1_545  A
N118       Mn132   2.189       .  S
N119        C121   1.352       .  A
Mn120      Cl133   2.544       .  S
C121        N671   1.355   1_545  A
C121        C196   1.481       .  S
C122        N673   1.355       .  A
C122        C187   1.489       .  S
N123        N124   1.322       .  A
N123        N408   1.314   1_554  A
N123       Mn131   2.209       .  S
N124        C413   1.357   1_554  A
N125        N126   1.320       .  A
N125        N406   1.314       .  A
N125       Mn132   2.201       .  S
N126        C135   1.356       .  A
N127        N128   1.318       .  A
N127        N404   1.314   1_554  A
N127       Mn131   2.190       .  S
N128        C414   1.352   1_554  A
N129        N130   1.317       .  A
N129        N402   1.315       .  A
N129       Mn132   2.186       .  S
N130        C134   1.350       .  A
Mn131      Cl970   2.543   1_554  S
Mn132      Cl691   2.543       .  S
Cl133      Mn388   2.548       .  S
Cl133      Mn968   2.543       .  S
Cl133      Mn690   2.544       .  S
C134        N403   1.357       .  A
C134        C148   1.484       .  S
C135        N407   1.351       .  A
C135        C172   1.485       .  S
C136        C141   1.414       .  A
C136        C416   1.405       .  A
C137        C138   1.400       .  A
C137        C415   1.404   1_554  A
C137        H142   1.085       .  S
C138        C418   1.414       .  A
C138        C145   1.445       .  S
C139        C140   1.403       .  A
C139        C417   1.414       .  A
C140        C141   1.401       .  A
C140        H143   1.083       .  S
C141        C144   1.442       .  S
C144        N146   1.157       .  T
C145        N147   1.157       .  T
C148        C153   1.416       .  A
C148        C428   1.402       .  A
C149        C150   1.399       .  A
C149        C427   1.401   1_554  A
C149        H154   1.085       .  S
C150        C430   1.414   1_554  A
C150        C157   1.440       .  S
C151        C152   1.404       .  A
C151        C429   1.414       .  A
C152        C153   1.400       .  A
C152        H155   1.085       .  S
C153        C156   1.444       .  S
C156        N158   1.157       .  T
C157        N159   1.156       .  T
C160        C161   1.404       .  A
C160        C444   1.417       .  A
C161        C162   1.399       .  A
C161        H166   1.085       .  S
C162        C163   1.416       .  A
C162        C169   1.445       .  S
C163        C443   1.402       .  A
C164        C165   1.396       .  A
C164        C442   1.402   1_554  A
C164        H167   1.084       .  S
C165        C439   1.417   1_554  A
C165        C168   1.445       .  S
C168        N170   1.158       .  T
C169        N171   1.158       .  T
C172        C173   1.404       .  A
C172        C456   1.417       .  A
C173        C174   1.398       .  A
C173        H178   1.084       .  S
C174        C175   1.416       .  A
C174        C181   1.445       .  S
C175        C455   1.405       .  A
C176        C177   1.399       .  A
C176        C454   1.404   1_554  A
C176        H179   1.085       .  S
C177        C451   1.416   1_554  A
C177        C180   1.444       .  S
C180        N182   1.157       .  T
C181        N183   1.157       .  T
C184        C189   1.415       .  A
C184        C743   1.407       .  A
C185        C186   1.399       .  A
C185        C742   1.405       .  A
C185        H190   1.085       .  S
C186        C745   1.415       .  A
C186        C193   1.444       .  S
C187        C188   1.405       .  A
C187        C744   1.415       .  A
C188        C189   1.399       .  A
C188        H191   1.083       .  S
C189        C192   1.444       .  S
C192        N194   1.157       .  T
C193        N195   1.157       .  T
C196        C201   1.414       .  A
C196        C755   1.402   1_545  A
C197        C198   1.399       .  A
C197        C754   1.404       .  A
C197        H202   1.085       .  S
C198        C199   1.415       .  A
C198        C205   1.444       .  S
C199        C758   1.404       .  A
C200        C201   1.401       .  A
C200        C757   1.404   1_545  A
C200        H203   1.085       .  S
C201        C204   1.444       .  S
C204        N206   1.157       .  T
C205        N207   1.157       .  T
C208        C209   1.406   1_565  A
C208        C771   1.415       .  A
C209        C210   1.402       .  A
C209        H214   1.084       .  S
C210        C211   1.415       .  A
C210        C217   1.444       .  S
C211        C770   1.405   1_545  A
C212        C213   1.401       .  A
C212        C769   1.406       .  A
C212        H215   1.084       .  S
C213        C766   1.414       .  A
C213        C216   1.444       .  S
C216        N218   1.157       .  T
C217        N219   1.157       .  T
C220        C221   1.405       .  A
C220        C783   1.417   1_545  A
C221        C222   1.401       .  A
C221        H226   1.084       .  S
C222        C781   1.417       .  A
C222        C229   1.444       .  S
C223        C224   1.404       .  A
C223        C780   1.417       .  A
C224        C225   1.399       .  A
C224        H227   1.085       .  S
C225        C778   1.418       .  A
C225        C228   1.445       .  S
C228        N230   1.158       .  T
C229        N231   1.158       .  T
C232        C233   1.405   1_655  A
C232       C1353   1.418       .  A
C233        C234   1.402       .  A
C233        H238   1.085       .  S
C234       C1351   1.417   1_455  A
C234        C241   1.444       .  S
C235        C236   1.405       .  A
C235       C1350   1.418       .  A
C236        C237   1.402       .  A
C236        H239   1.085       .  S
C237       C1348   1.417       .  A
C237        C240   1.445       .  S
C240        N242   1.158       .  T
C241        N243   1.158       .  T
C244        C249   1.414       .  A
C244       C1361   1.405       .  A
C245        C246   1.398       .  A
C245       C1360   1.405   1_455  A
C245        H250   1.085       .  S
C246       C1363   1.414   1_455  A
C246        C253   1.444       .  S
C247        C248   1.405       .  A
C247       C1362   1.415       .  A
C248        C249   1.400       .  A
C248        H251   1.084       .  S
C249        C252   1.443       .  S
C252        N254   1.157       .  T
C253        N255   1.157       .  T
C256        C261   1.418       .  A
C256       C1373   1.404       .  A
C257        C258   1.401       .  A
C257       C1372   1.404   1_455  A
C257        H262   1.085       .  S
C258        C259   1.418   1_455  A
C258        C265   1.444       .  S
C259       C1376   1.405       .  A
C260        C261   1.403       .  A
C260       C1375   1.405       .  A
C260        H263   1.085       .  S
C261        C264   1.444       .  S
C264        N266   1.157       .  T
C265        N267   1.157       .  T
C268        C269   1.402   1_455  A
C268        C273   1.414       .  A
C269        C270   1.394       .  A
C269       H1390   1.080       .  S
C270        C271   1.411       .  A
C270       C1393   1.444       .  S
C271        C272   1.405   1_655  A
C272        C273   1.397       .  A
C272        H275   1.084       .  S
C273        C276   1.444       .  S
H274       C1385   1.079       .  S
C276        N278   1.158       .  T
C277       C1386   1.444       .  S
C277        N279   1.157       .  T
N280        N281   1.320       .  A
N280        N844   1.314       .  A
N280       Mn309   2.198       .  S
N281        C846   1.355       .  A
N282        N842   1.314   1_545  A
N282        N283   1.321       .  A
N282       Mn298   2.198       .  S
N283        C847   1.355       .  A
N284        N840   1.314       .  A
N284        N285   1.317       .  A
N284       Mn309   2.186       .  S
N285        C289   1.350       .  A
N286        N838   1.314   1_545  A
N286        N287   1.321       .  A
N286       Mn298   2.203       .  S
N287        C288   1.354       .  A
C288        N839   1.355   1_545  A
C288        C490   1.489       .  S
C289        N841   1.355       .  A
C289        C478   1.480       .  S
N290       N1412   1.315       .  A
N290        N291   1.321       .  A
N290       Mn320   2.209       .  S
N291        C299   1.356       .  A
N292        N293   1.316       .  A
N292       N1410   1.314   1_455  A
N292       Mn298   2.185       .  S
N293        C300   1.352   1_455  A
N294       N1408   1.314       .  A
N294        N295   1.319       .  A
N294       Mn320   2.193       .  S
N295       C1416   1.353       .  A
N296       N1406   1.315   1_455  A
N296        N297   1.320       .  A
N296       Mn298   2.201       .  S
N297       C1415   1.353   1_455  A
Mn298      Cl322   2.546   1_455  S
C299       N1413   1.354       .  A
C299        C514   1.492       .  S
C300       N1411   1.353       .  A
C300        C550   1.478       .  S
N301        N302   1.319       .  A
N301       N1423   1.313   1_455  A
N301       Mn309   2.197       .  S
N302       C1426   1.354   1_455  A
N303       N1421   1.314       .  A
N303        N304   1.322       .  A
N303       Mn321   2.211       .  S
N304       C1427   1.358       .  A
N305       N1419   1.314   1_455  A
N305        N306   1.318       .  A
N305       Mn309   2.190       .  S
N306        C311   1.351   1_455  A
N307       N1417   1.314       .  A
N307        N308   1.317       .  A
N307       Mn321   2.188       .  S
N308        C310   1.352       .  A
Mn309      Cl880   2.541   1_455  S
C310       N1418   1.355       .  A
C310        C526   1.484       .  S
C311       N1420   1.357       .  A
C311        C538   1.490       .  S
N312        N313   1.321       .  A
N312        N876   1.314   1_545  A
N312       Mn320   2.210       .  S
N313        C323   1.357       .  A
N314        N315   1.320       .  A
N314        N874   1.314       .  A
N314       Mn321   2.202       .  S
N315        C324   1.354       .  A
N316        N872   1.314   1_545  A
N316        N317   1.320       .  A
N316       Mn320   2.198       .  S
N317        C882   1.354       .  A
N318        N870   1.315       .  A
N318        N319   1.318       .  A
N318       Mn321   2.188       .  S
N319        C881   1.351       .  A
Mn320     Cl1438   2.545       .  S
Mn321     Cl1996   2.544       .  S
Cl322      Mn867   2.540   1_645  S
Cl322     Mn1436   2.545       .  S
Cl322     Mn1995   2.544   1_545  S
C323        N877   1.353   1_545  A
C323        C499   1.490       .  S
C324        N875   1.355       .  A
C324        C463   1.489       .  S
N325        N326   1.318       .  A
N325       N1447   1.314       .  A
N325       Mn354   2.196       .  S
N326       C1449   1.354       .  A
N327       N1445   1.314   1_455  A
N327        N328   1.321       .  A
N327       Mn343   2.203       .  S
N328       C1450   1.356   1_455  A
N329       N1443   1.314       .  A
N329        N330   1.320       .  A
N329       Mn354   2.201       .  S
N330        C334   1.354       .  A
N331       N1441   1.314   1_455  A
N331        N332   1.318       .  A
N331       Mn343   2.181       .  S
N332        C333   1.351   1_455  A
C333       N1442   1.354       .  A
C333        C547   1.479   1_655  S
C334       N1444   1.356       .  A
C334        C535   1.490       .  S
N335        N336   1.321       .  A
N335       Mn365   2.205       .  S
N336        C344   1.356       .  A
N337        N338   1.320       .  A
N337       Mn343   2.199       .  S
N339        N340   1.317       .  A
N339       Mn365   2.187       .  S
N340        C345   1.351       .  A
N341        N342   1.315       .  A
N341       Mn343   2.179       .  S
Mn343     Cl1204   2.543   1_455  S
C344        C439   1.483       .  S
C345        C454   1.485       .  S
N346        N347   1.318       .  A
N346       Mn354   2.196       .  S
N348        N349   1.320       .  A
N348       Mn366   2.202       .  S
N349        C356   1.355       .  A
N350        N351   1.321       .  A
N350       Mn354   2.203       .  S
N352        N353   1.320       .  A
N352       Mn366   2.199       .  S
N353        C355   1.354       .  A
C355        C418   1.482   1_556  S
C356        C430   1.484       .  S
N357        N358   1.322       .  A
N357       N1479   1.314   1_455  A
N357       Mn365   2.211       .  S
N358        C368   1.357   1_455  A
N359        N360   1.319       .  A
N359       N1477   1.314       .  A
N359       Mn366   2.202       .  S
N360        C369   1.354       .  A
N361       N1475   1.314   1_455  A
N361        N362   1.318       .  A
N361       Mn365   2.187       .  S
N362       C1485   1.353   1_455  A
N363       N1473   1.314       .  A
N363        N364   1.318       .  A
N363       Mn366   2.197       .  S
N364       C1484   1.352       .  A
Mn365     Cl1483   2.546   1_455  S
Mn366      Cl367   2.544       .  S
Cl367     Mn1180   2.544   1_556  S
Cl367     Mn1481   2.546       .  S
C368       N1480   1.352       .  A
C368        C511   1.492       .  S
C369       N1478   1.353       .  A
C369        C523   1.486       .  S
N370        N371   1.320       .  A
N370       Mn399   2.204       .  S
N371        C378   1.354       .  A
N372        N373   1.318       .  A
N372       Mn388   2.197       .  S
N374        N375   1.318       .  A
N374       Mn399   2.189       .  S
N375        C379   1.351       .  A
N376        N377   1.320       .  A
N376       Mn388   2.203       .  S
C378        C415   1.485       .  S
C379        C442   1.483       .  S
N380        N944   1.315   1_545  A
N380        N381   1.321       .  A
N380       Mn410   2.203       .  S
N381        C389   1.355   1_545  A
N382        N383   1.321       .  A
N382        N942   1.315       .  A
N382       Mn388   2.204       .  S
N383        C390   1.356       .  A
N384        N940   1.315   1_545  A
N384        N385   1.318       .  A
N384       Mn410   2.194       .  S
N385        C948   1.352       .  A
N386        N938   1.314       .  A
N386        N387   1.321       .  A
N386       Mn388   2.204       .  S
N387        C947   1.355       .  A
C389        N945   1.354       .  A
C389        C487   1.489       .  S
C390        N943   1.352       .  A
C390        C502   1.488       .  S
N391        N392   1.320       .  A
N391        N955   1.314       .  A
N391       Mn399   2.201       .  S
N392        C958   1.354       .  A
N393        N953   1.314   1_545  A
N393        N394   1.320       .  A
N393       Mn411   2.203       .  S
N394        C959   1.354       .  A
N395        N951   1.314       .  A
N395        N396   1.319       .  A
N395       Mn399   2.192       .  S
N396        C401   1.354       .  A
N397        N949   1.314   1_545  A
N397        N398   1.318       .  A
N397       Mn411   2.181       .  S
N398        C400   1.351       .  A
Mn399      Cl412   2.543       .  S
C400        N950   1.355   1_545  A
C400        C475   1.480       .  S
C401        N952   1.355       .  A
C401        C466   1.488       .  S
N402        N403   1.322       .  A
N402       Mn410   2.210       .  S
N404        N405   1.320       .  A
N404       Mn411   2.201       .  S
N405        C414   1.356       .  A
N406        N407   1.318       .  A
N406       Mn410   2.188       .  S
N408        N409   1.316       .  A
N408       Mn411   2.178       .  S
N409        C413   1.349       .  A
Mn410      Cl691   2.543       .  S
Mn411      Cl970   2.542       .  S
Cl412      Mn689   2.542   1_556  S
Cl412      Mn969   2.545       .  S
C413        C427   1.481       .  S
C414        C451   1.486       .  S
C415        C420   1.414       .  A
C416        C417   1.401       .  A
C416        H421   1.085       .  S
C417        C424   1.445       .  S
C418        C419   1.404   1_554  A
C419        C420   1.401       .  A
C419        H422   1.085       .  S
C420        C423   1.443       .  S
C423        N425   1.157       .  T
C424        N426   1.157       .  T
C427        C432   1.416       .  A
C428        C429   1.400       .  A
C428        H433   1.085       .  S
C429        C436   1.440       .  S
C430        C431   1.403       .  A
C431        C432   1.399       .  A
C431        H434   1.085       .  S
C432        C435   1.444       .  S
C435        N437   1.157       .  T
C436        N438   1.156       .  T
C439        C440   1.404       .  A
C440        C441   1.400       .  A
C440        H445   1.085       .  S
C441        C442   1.416       .  A
C441        C448   1.445       .  S
C443        C444   1.395       .  A
C443        H446   1.084       .  S
C444        C447   1.445       .  S
C447        N449   1.158       .  T
C448        N450   1.158       .  T
C451        C452   1.404       .  A
C452        C453   1.399       .  A
C452        H457   1.084       .  S
C453        C454   1.416       .  A
C453        C460   1.445       .  S
C455        C456   1.399       .  A
C455        H458   1.085       .  S
C456        C459   1.445       .  S
C459        N461   1.158       .  T
C460        N462   1.158       .  T
C463       C1022   1.406       .  A
C463        C468   1.416       .  A
C464       C1021   1.404       .  A
C464        C465   1.399       .  A
C464        H469   1.085       .  S
C465       C1024   1.415       .  A
C465        C472   1.443       .  S
C466       C1023   1.415       .  A
C466        C467   1.405       .  A
C467        C468   1.399       .  A
C467        H470   1.083       .  S
C468        C471   1.444       .  S
C471        N473   1.157       .  T
C472        N474   1.157       .  T
C475       C1034   1.402   1_545  A
C475        C480   1.415       .  A
C476       C1033   1.402       .  A
C476        C477   1.397       .  A
C476        H481   1.085       .  S
C477        C478   1.415       .  A
C477        C484   1.445       .  S
C478       C1037   1.403       .  A
C479       C1036   1.403       .  A
C479        C480   1.400       .  A
C479        H482   1.085       .  S
C480        C483   1.444       .  S
C483        N485   1.157       .  T
C484        N486   1.157       .  T
C487        C488   1.406   1_565  A
C487       C1050   1.415       .  A
C488        C489   1.402       .  A
C488        H493   1.084       .  S
C489        C490   1.415       .  A
C489        C496   1.443       .  S
C490       C1049   1.405   1_545  A
C491       C1048   1.406       .  A
C491        C492   1.401       .  A
C491        H494   1.085       .  S
C492       C1045   1.414       .  A
C492        C495   1.444       .  S
C495        N497   1.157       .  T
C496        N498   1.157       .  T
C499        C500   1.404       .  A
C499       C1062   1.417   1_545  A
C500        C501   1.400       .  A
C500        H505   1.084       .  S
C501       C1060   1.417       .  A
C501        C508   1.444       .  S
C502       C1059   1.416       .  A
C502        C503   1.404       .  A
C503        C504   1.400       .  A
C503        H506   1.085       .  S
C504       C1057   1.417       .  A
C504        C507   1.445       .  S
C507        N509   1.158       .  T
C508        N510   1.158       .  T
C511        C512   1.406   1_655  A
C511       C1632   1.418       .  A
C512        C513   1.403       .  A
C512        H517   1.085       .  S
C513       C1630   1.417   1_455  A
C513        C520   1.444       .  S
C514       C1629   1.417       .  A
C514        C515   1.405       .  A
C515        C516   1.401       .  A
C515        H518   1.085       .  S
C516       C1627   1.417       .  A
C516        C519   1.445       .  S
C519        N521   1.158       .  T
C520        N522   1.157       .  T
C523       C1640   1.407       .  A
C523        C528   1.414       .  A
C524       C1639   1.406   1_455  A
C524        C525   1.399       .  A
C524        H529   1.085       .  S
C525       C1642   1.413   1_455  A
C525        C532   1.444       .  S
C526       C1641   1.413       .  A
C526        C527   1.405       .  A
C527        C528   1.398       .  A
C527        H530   1.084       .  S
C528        C531   1.444       .  S
C531        N533   1.157       .  T
C532        N534   1.157       .  T
C535       C1652   1.405       .  A
C535        C540   1.416       .  A
C536       C1651   1.405   1_455  A
C536        C537   1.401       .  A
C536        H541   1.085       .  S
C537        C538   1.418   1_455  A
C537        C544   1.445       .  S
C538       C1655   1.405       .  A
C539       C1654   1.405       .  A
C539        C540   1.402       .  A
C539        H542   1.085       .  S
C540        C543   1.444       .  S
C543        N545   1.157       .  T
C544        N546   1.158       .  T
C547        C548   1.403   1_455  A
C547        C552   1.414       .  A
C548        C549   1.395       .  A
C548       H1669   1.081       .  S
C549        C550   1.412       .  A
C549       C1672   1.444       .  S
C550        C551   1.405   1_655  A
C551        C552   1.396       .  A
C551        H554   1.083       .  S
C552        C555   1.445       .  S
H553       C1664   1.080       .  S
C555        N557   1.158       .  T
C556       C1665   1.444       .  S
C556        N558   1.157       .  T
N559        N560   1.319       .  A
N559       Mn588   2.198       .  S
N561        N562   1.321       .  A
N561       Mn577   2.200       .  S
N563        N564   1.317       .  A
N563       Mn588   2.193       .  S
N564        C568   1.351   1_565  A
N565        N566   1.319       .  A
N565       Mn577   2.199       .  S
N566        C567   1.353       .  A
C567        C769   1.488       .  S
C568        C757   1.481   1_545  S
N569       N1691   1.315       .  A
N569        N570   1.320       .  A
N569       Mn599   2.208       .  S
N570        C578   1.356       .  A
N571        N572   1.318       .  A
N571       N1689   1.315   1_455  A
N571       Mn577   2.195       .  S
N572        C579   1.353   1_455  A
N573       N1687   1.314       .  A
N573        N574   1.320       .  A
N573       Mn599   2.200       .  S
N574       C1695   1.355       .  A
N575       N1685   1.315   1_455  A
N575        N576   1.320       .  A
N575       Mn577   2.195       .  S
N576       C1694   1.353   1_455  A
Mn577      Cl601   2.545   1_455  S
C578       N1692   1.353       .  A
C578        C793   1.490       .  S
C579       N1690   1.354       .  A
C579        C829   1.484       .  S
N580        N581   1.320       .  A
N580       N1702   1.314   1_455  A
N580       Mn588   2.202       .  S
N581       C1705   1.354   1_455  A
N582       N1700   1.315       .  A
N582        N583   1.321       .  A
N582       Mn600   2.206       .  S
N583       C1706   1.355       .  A
N584       N1698   1.315   1_455  A
N584        N585   1.320       .  A
N584       Mn588   2.196       .  S
N585        C590   1.353   1_455  A
N586       N1696   1.314       .  A
N586        N587   1.319       .  A
N586       Mn600   2.194       .  S
N587        C589   1.354       .  A
C589       N1697   1.354       .  A
C589        C805   1.487       .  S
C590       N1699   1.355       .  A
C590        C817   1.484       .  S
N591        N592   1.322       .  A
N591       Mn599   2.212       .  S
N592        C602   1.357       .  A
N593        N594   1.321       .  A
N593       Mn600   2.205       .  S
N594        C603   1.354   1_565  A
N595        N596   1.320       .  A
N595       Mn599   2.198       .  S
N597        N598   1.319       .  A
N597       Mn600   2.196       .  S
Mn599     Cl1717   2.547       .  S
Mn600     Cl1159   2.545   1_565  S
Cl601     Mn1715   2.547       .  S
Cl601     Mn1158   2.545       .  S
C602        C778   1.488       .  S
C603        C742   1.487       .  S
N604        N605   1.317       .  A
N604       N1726   1.314       .  A
N604       Mn633   2.190       .  S
N605       C1728   1.353       .  A
N606       N1724   1.315   1_455  A
N606        N607   1.323       .  A
N606       Mn622   2.214       .  S
N607       C1729   1.357   1_455  A
N608       N1722   1.315       .  A
N608        N609   1.318       .  A
N608       Mn633   2.194       .  S
N609        C613   1.351       .  A
N610       N1720   1.314   1_455  A
N610        N611   1.320       .  A
N610       Mn622   2.199       .  S
N611        C612   1.354   1_455  A
C612       N1721   1.352       .  A
C612        C826   1.484       .  S
C613       N1723   1.357       .  A
C613        C814   1.487       .  S
N614        N899   1.315       .  A
N614        N615   1.320       .  A
N614       Mn644   2.198       .  S
N615        C623   1.355       .  A
N616        N617   1.321       .  A
N616        N897   1.315   1_554  A
N616       Mn622   2.210       .  S
N617        C903   1.356   1_554  A
N618        N895   1.315       .  A
N618        N619   1.319       .  A
N618       Mn644   2.197       .  S
N619        C624   1.353       .  A
N620        N893   1.315   1_554  A
N620        N621   1.317       .  A
N620       Mn622   2.196       .  S
N621        C902   1.352   1_554  A
Mn622     Cl2041   2.546   1_454  S
C623        N900   1.352       .  A
C623        C718   1.485       .  S
C624        N896   1.356       .  A
C624        C733   1.490       .  S
N625        N626   1.319       .  A
N625        N910   1.314   1_554  A
N625       Mn633   2.195       .  S
N626        C913   1.353   1_554  A
N627        N908   1.314       .  A
N627        N628   1.319       .  A
N627       Mn645   2.195       .  S
N628        C635   1.353       .  A
N629        N906   1.314   1_554  A
N629        N630   1.321       .  A
N629       Mn633   2.202       .  S
N630        C914   1.354   1_554  A
N631        N904   1.314       .  A
N631        N632   1.320       .  A
N631       Mn645   2.203       .  S
N632        C634   1.356       .  A
Mn633      Cl925   2.543   1_554  S
C634        N905   1.352       .  A
C634        C697   1.487       .  S
C635        N909   1.354       .  A
C635        C709   1.482       .  S
N636        N637   1.322       .  A
N636       N1758   1.314   1_455  A
N636       Mn644   2.207       .  S
N637        C647   1.356   1_455  A
N638        N639   1.320       .  A
N638       N1756   1.314       .  A
N638       Mn645   2.200       .  S
N639        C648   1.354       .  A
N640       N1754   1.314   1_455  A
N640        N641   1.320       .  A
N640       Mn644   2.200       .  S
N641       C1764   1.354   1_455  A
N642       N1752   1.315       .  A
N642        N643   1.319       .  A
N642       Mn645   2.202       .  S
N643       C1763   1.353       .  A
Mn644     Cl1762   2.547   1_455  S
Mn645      Cl646   2.545       .  S
Cl646     Mn2017   2.547       .  S
Cl646      Mn912   2.543       .  S
Cl646     Mn1760   2.546       .  S
C647       N1759   1.353       .  A
C647        C790   1.491       .  S
C648       N1757   1.354       .  A
C648        C802   1.488       .  S
N649        N650   1.318       .  A
N649        N934   1.315       .  A
N649       Mn678   2.197       .  S
N650        C657   1.352       .  A
N651        N932   1.314   1_554  A
N651        N652   1.319       .  A
N651       Mn667   2.205       .  S
N652        C937   1.355   1_554  A
N653        N930   1.314       .  A
N653        N654   1.318       .  A
N653       Mn678   2.186       .  S
N654        C658   1.351       .  A
N655        N928   1.315   1_554  A
N655        N656   1.321       .  A
N655       Mn667   2.202       .  S
N656        C936   1.355   1_554  A
C657        N935   1.355       .  A
C657        C694   1.487       .  S
C658        N931   1.356       .  A
C658        C721   1.485       .  S
N659        N660   1.318       .  A
N659       Mn689   2.193       .  S
N660        C668   1.353       .  A
N661        N662   1.321       .  A
N661       Mn667   2.208       .  S
N662        C669   1.356   1_565  A
N663        N664   1.318       .  A
N663       Mn689   2.193       .  S
N665        N666   1.320       .  A
N665       Mn667   2.203       .  S
Mn667      Cl970   2.546   1_564  S
C668        C766   1.487       .  S
C669        C781   1.491       .  S
N670        N671   1.320       .  A
N670       Mn678   2.201       .  S
N672        N673   1.320       .  A
N672       Mn690   2.206       .  S
N674        N675   1.320       .  A
N674       Mn678   2.193       .  S
N675        C680   1.354   1_565  A
N676        N677   1.320       .  A
N676       Mn690   2.195       .  S
N677        C679   1.353       .  A
Mn678      Cl691   2.544   1_565  S
C679        C754   1.484       .  S
C680        C745   1.487       .  S
N681        N682   1.321       .  A
N681        N966   1.314   1_554  A
N681       Mn689   2.202       .  S
N682        C971   1.355   1_554  A
N683        N684   1.320       .  A
N683        N964   1.314       .  A
N683       Mn690   2.207       .  S
N684        C693   1.356       .  A
N685        N962   1.314   1_554  A
N685        N686   1.320       .  A
N685       Mn689   2.195       .  S
N686        C972   1.353   1_554  A
N687        N960   1.315       .  A
N687        N688   1.317       .  A
N687       Mn690   2.192       .  S
N688        C692   1.351       .  A
Cl691      Mn946   2.546   1_545  S
C692        N961   1.355       .  A
C692        C706   1.482       .  S
C693        N965   1.352       .  A
C693        C730   1.490       .  S
C694        C974   1.405       .  A
C694        C699   1.416       .  A
C695        C973   1.406   1_554  A
C695        C696   1.401       .  A
C695        H700   1.085       .  S
C696        C976   1.417   1_554  A
C696        C703   1.444       .  S
C697        C975   1.416       .  A
C697        C698   1.404       .  A
C698        C699   1.398       .  A
C698        H701   1.085       .  S
C699        C702   1.444       .  S
C702        N704   1.157       .  T
C703        N705   1.157       .  T
C706        C986   1.404       .  A
C706        C711   1.415       .  A
C707        C985   1.404   1_554  A
C707        C708   1.401       .  A
C707        H712   1.085       .  S
C708        C988   1.413   1_554  A
C708        C715   1.442       .  S
C709        C987   1.413       .  A
C709        C710   1.403       .  A
C710        C711   1.398       .  A
C710        H713   1.085       .  S
C711        C714   1.445       .  S
C714        N716   1.157       .  T
C715        N717   1.157       .  T
C718        C719   1.405       .  A
C718       C1002   1.415       .  A
C719        C720   1.401       .  A
C719        H724   1.085       .  S
C720        C721   1.417       .  A
C720        C727   1.445       .  S
C721       C1001   1.403       .  A
C722       C1000   1.403   1_554  A
C722        C723   1.396       .  A
C722        H725   1.085       .  S
C723        C997   1.415   1_554  A
C723        C726   1.444       .  S
C726        N728   1.157       .  T
C727        N729   1.158       .  T
C730        C731   1.404       .  A
C730       C1014   1.417       .  A
C731        C732   1.399       .  A
C731        H736   1.084       .  S
C732        C733   1.416       .  A
C732        C739   1.444       .  S
C733       C1013   1.406       .  A
C734       C1012   1.406   1_554  A
C734        C735   1.403       .  A
C734        H737   1.085       .  S
C735       C1009   1.417   1_554  A
C735        C738   1.444       .  S
C738        N740   1.158       .  T
C739        N741   1.157       .  T
C742        C747   1.414   1_545  A
C743        C744   1.402       .  A
C743        H748   1.084       .  S
C744        C751   1.443       .  S
C745        C746   1.406   1_545  A
C746        C747   1.401       .  A
C746        H749   1.085       .  S
C747        C750   1.444       .  S
C750        N752   1.157       .  T
C751        N753   1.157       .  T
C754        C759   1.415       .  A
C755        C756   1.397       .  A
C755        H760   1.085       .  S
C756        C757   1.415       .  A
C756        C763   1.444       .  S
C758        C759   1.401       .  A
C758        H761   1.084       .  S
C759        C762   1.443       .  S
C762        N764   1.157       .  T
C763        N765   1.157       .  T
C766        C767   1.405       .  A
C767        C768   1.399       .  A
C767        H772   1.084       .  S
C768        C769   1.416       .  A
C768        C775   1.444       .  S
C770        C771   1.400       .  A
C770        H773   1.084       .  S
C771        C774   1.444       .  S
C774        N776   1.157       .  T
C775        N777   1.158       .  T
C778        C779   1.404       .  A
C779        C780   1.400       .  A
C779        H784   1.084       .  S
C780        C787   1.444       .  S
C781        C782   1.405   1_545  A
C782        C783   1.402       .  A
C782        H785   1.085       .  S
C783        C786   1.444       .  S
C786        N788   1.158       .  T
C787        N789   1.157       .  T
C790        C791   1.407   1_655  A
C790       C1911   1.417       .  A
C791        C792   1.404       .  A
C791        H796   1.084       .  S
C792       C1909   1.417   1_455  A
C792        C799   1.445       .  S
C793       C1908   1.417       .  A
C793        C794   1.404       .  A
C794        C795   1.399       .  A
C794        H797   1.085       .  S
C795       C1906   1.417       .  A
C795        C798   1.444       .  S
C798        N800   1.157       .  T
C799        N801   1.158       .  T
C802       C1919   1.406       .  A
C802        C807   1.415       .  A
C803       C1918   1.406   1_455  A
C803        C804   1.401       .  A
C803        H808   1.085       .  S
C804       C1921   1.414   1_455  A
C804        C811   1.444       .  S
C805       C1920   1.414       .  A
C805        C806   1.405       .  A
C806        C807   1.399       .  A
C806        H809   1.084       .  S
C807        C810   1.444       .  S
C810        N812   1.157       .  T
C811        N813   1.157       .  T
C814       C1931   1.405       .  A
C814        C819   1.417       .  A
C815       C1930   1.405   1_455  A
C815        C816   1.403       .  A
C815        H820   1.084       .  S
C816        C817   1.414   1_455  A
C816        C823   1.444       .  S
C817       C1934   1.402       .  A
C818       C1933   1.402       .  A
C818        C819   1.399       .  A
C818        H821   1.085       .  S
C819        C822   1.444       .  S
C822        N824   1.157       .  T
C823        N825   1.157       .  T
C826        C827   1.405       .  A
C826        C831   1.414   1_655  A
C827        C828   1.398       .  A
C827       H1948   1.083       .  S
C828        C829   1.414       .  A
C828       C1951   1.444       .  S
C829        C830   1.406   1_655  A
C830        C831   1.399       .  A
C830        H833   1.085       .  S
C831        C834   1.444       .  S
H832       C1943   1.083       .  S
C834        N836   1.157       .  T
C835       C1944   1.444       .  S
C835        N837   1.157       .  T
N838        N839   1.319       .  A
N838       Mn867   2.202       .  S
N840        N841   1.321       .  A
N840       Mn856   2.201       .  S
N842        N843   1.316       .  A
N842       Mn867   2.188       .  S
N843        C847   1.350   1_565  A
N844        N845   1.319       .  A
N844       Mn856   2.199       .  S
N845        C846   1.353       .  A
C846       C1048   1.487       .  S
C847       C1036   1.480       .  S
N848       N1970   1.315       .  A
N848        N849   1.320       .  A
N848       Mn878   2.208       .  S
N849        C857   1.356       .  A
N850        N851   1.319       .  A
N850       N1968   1.315   1_455  A
N850       Mn856   2.197       .  S
N851        C858   1.353   1_455  A
N852       N1966   1.314       .  A
N852        N853   1.319       .  A
N852       Mn878   2.198       .  S
N853       C1974   1.354       .  A
N854       N1964   1.315   1_455  A
N854        N855   1.320       .  A
N854       Mn856   2.195       .  S
N855       C1973   1.353   1_455  A
Mn856      Cl880   2.545   1_455  S
C857       N1971   1.353       .  A
C857       C1072   1.490       .  S
C858       N1969   1.354       .  A
C858       C1108   1.486       .  S
N859        N860   1.321       .  A
N859       N1981   1.314   1_455  A
N859       Mn867   2.205       .  S
N860       C1984   1.355   1_455  A
N861       N1979   1.315       .  A
N861        N862   1.320       .  A
N861       Mn879   2.202       .  S
N862       C1985   1.354       .  A
N863       N1977   1.315   1_455  A
N863        N864   1.320       .  A
N863       Mn867   2.195       .  S
N864        C869   1.353   1_455  A
N865       N1975   1.314       .  A
N865        N866   1.318       .  A
N865       Mn879   2.191       .  S
N866        C868   1.353       .  A
C868       N1976   1.355       .  A
C868       C1084   1.485       .  S
C869       N1978   1.355       .  A
C869       C1096   1.483       .  S
N870        N871   1.321       .  A
N870       Mn878   2.213       .  S
N871        C881   1.357       .  A
N872        N873   1.320       .  A
N872       Mn879   2.203       .  S
N873        C882   1.354   1_565  A
N874        N875   1.320       .  A
N874       Mn878   2.199       .  S
N876        N877   1.319       .  A
N876       Mn879   2.195       .  S
Mn878     Cl1996   2.546       .  S
Mn879     Cl1438   2.544   1_565  S
Cl880     Mn1994   2.545       .  S
Cl880     Mn1437   2.544       .  S
C881       C1057   1.488       .  S
C882       C1021   1.487       .  S
N883        N884   1.317       .  A
N883       N2005   1.315       .  A
N883       Mn912   2.190       .  S
N884       C2007   1.353       .  A
N885       N2003   1.315   1_455  A
N885        N886   1.322       .  A
N885       Mn901   2.211       .  S
N886       C2008   1.356   1_455  A
N887       N2001   1.315       .  A
N887        N888   1.319       .  A
N887       Mn912   2.194       .  S
N888        C892   1.352       .  A
N889       N1999   1.314   1_455  A
N889        N890   1.320       .  A
N889       Mn901   2.199       .  S
N890        C891   1.354   1_455  A
C891       N2000   1.353       .  A
C891       C1105   1.485       .  S
C892       N2002   1.356       .  A
C892       C1093   1.485       .  S
N893        N894   1.320       .  A
N893       Mn923   2.196       .  S
N894        C902   1.354       .  A
N895        N896   1.321       .  A
N895       Mn901   2.205       .  S
N897        N898   1.320       .  A
N897       Mn923   2.201       .  S
N898        C903   1.353       .  A
N899        N900   1.317       .  A
N899       Mn901   2.196       .  S
Mn901     Cl1762   2.545   1_455  S
C902        C997   1.484       .  S
C903       C1012   1.492       .  S
N904        N905   1.319       .  A
N904       Mn912   2.193       .  S
N906        N907   1.318       .  A
N906       Mn924   2.194       .  S
N907        C914   1.353       .  A
N908        N909   1.321       .  A
N908       Mn912   2.200       .  S
N910        N911   1.320       .  A
N910       Mn924   2.203       .  S
N911        C913   1.356       .  A
C913        C976   1.489       .  S
C914        C988   1.483       .  S
N915        N916   1.322       .  A
N915       N2037   1.314   1_455  A
N915       Mn923   2.205       .  S
N916        C926   1.356   1_455  A
N917        N918   1.319       .  A
N917       N2035   1.314       .  A
N917       Mn924   2.196       .  S
N918        C927   1.353       .  A
N919       N2033   1.314   1_455  A
N919        N920   1.320       .  A
N919       Mn923   2.202       .  S
N920       C2043   1.355   1_455  A
N921       N2031   1.314       .  A
N921        N922   1.319       .  A
N921       Mn924   2.200       .  S
N922       C2042   1.353       .  A
Mn923     Cl2041   2.548   1_455  S
Mn924      Cl925   2.544       .  S
Cl925     Mn1738   2.547   1_556  S
Cl925     Mn2039   2.548       .  S
C926       N2038   1.353       .  A
C926       C1069   1.490       .  S
C927       N2036   1.355       .  A
C927       C1081   1.487       .  S
N928        N929   1.319       .  A
N928       Mn957   2.200       .  S
N929        C936   1.353       .  A
N930        N931   1.319       .  A
N930       Mn946   2.207       .  S
N932        N933   1.318       .  A
N932       Mn957   2.186       .  S
N933        C937   1.351       .  A
N934        N935   1.321       .  A
N934       Mn946   2.201       .  S
C936        C973   1.489       .  S
C937       C1000   1.484       .  S
N938        N939   1.318       .  A
N938       Mn968   2.193       .  S
N939        C947   1.353       .  A
N940        N941   1.321       .  A
N940       Mn946   2.209       .  S
N941        C948   1.357   1_565  A
N942        N943   1.318       .  A
N942       Mn968   2.194       .  S
N944        N945   1.320       .  A
N944       Mn946   2.202       .  S
C947       C1045   1.487       .  S
C948       C1060   1.490       .  S
N949        N950   1.319       .  A
N949       Mn957   2.202       .  S
N951        N952   1.320       .  A
N951       Mn969   2.207       .  S
N953        N954   1.320       .  A
N953       Mn957   2.195       .  S
N954        C959   1.354   1_565  A
N955        N956   1.319       .  A
N955       Mn969   2.191       .  S
N956        C958   1.352       .  A
Mn957      Cl970   2.544   1_565  S
C958       C1033   1.480       .  S
C959       C1024   1.488       .  S
N960        N961   1.321       .  A
N960       Mn968   2.202       .  S
N962        N963   1.321       .  A
N962       Mn969   2.208       .  S
N963        C972   1.356       .  A
N964        N965   1.319       .  A
N964       Mn968   2.194       .  S
N966        N967   1.318       .  A
N966       Mn969   2.191       .  S
N967        C971   1.352       .  A
C971        C985   1.482       .  S
C972       C1009   1.491       .  S
C973        C978   1.416       .  A
C974        C975   1.401       .  A
C974        H979   1.085       .  S
C975        C982   1.444       .  S
C976        C977   1.404       .  A
C977        C978   1.399       .  A
C977        H980   1.085       .  S
C978        C981   1.444       .  S
C981        N983   1.157       .  T
C982        N984   1.157       .  T
C985        C990   1.415       .  A
C986        C987   1.401       .  A
C986        H991   1.084       .  S
C987        C994   1.443       .  S
C988        C989   1.404       .  A
C989        C990   1.398       .  A
C989        H992   1.085       .  S
C990        C993   1.444       .  S
C993        N995   1.157       .  T
C994        N996   1.157       .  T
C997        C998   1.405       .  A
C998        C999   1.400       .  A
C998       H1003   1.085       .  S
C999       C1000   1.417       .  A
C999       C1006   1.445       .  S
C1001      C1002   1.397       .  A
C1001      H1004   1.085       .  S
C1002      C1005   1.444       .  S
C1005      N1007   1.157       .  T
C1006      N1008   1.158       .  T
C1009      C1010   1.404       .  A
C1010      C1011   1.401       .  A
C1010      H1015   1.084       .  S
C1011      C1012   1.417       .  A
C1011      C1018   1.444       .  S
C1013      C1014   1.402       .  A
C1013      H1016   1.085       .  S
C1014      C1017   1.445       .  S
C1017      N1019   1.158       .  T
C1018      N1020   1.157       .  T
C1021      C1026   1.415   1_545  A
C1022      C1023   1.401       .  A
C1022      H1027   1.085       .  S
C1023      C1030   1.443       .  S
C1024      C1025   1.406   1_545  A
C1025      C1026   1.401       .  A
C1025      H1028   1.085       .  S
C1026      C1029   1.444       .  S
C1029      N1031   1.157       .  T
C1030      N1032   1.157       .  T
C1033      C1038   1.414       .  A
C1034      C1035   1.396       .  A
C1034      H1039   1.085       .  S
C1035      C1036   1.415   1_565  A
C1035      C1042   1.444       .  S
C1037      C1038   1.400       .  A
C1037      H1040   1.084       .  S
C1038      C1041   1.444       .  S
C1041      N1043   1.157       .  T
C1042      N1044   1.157       .  T
C1045      C1046   1.405       .  A
C1046      C1047   1.398       .  A
C1046      H1051   1.085       .  S
C1047      C1048   1.416       .  A
C1047      C1054   1.445       .  S
C1049      C1050   1.400       .  A
C1049      H1052   1.084       .  S
C1050      C1053   1.444       .  S
C1053      N1055   1.157       .  T
C1054      N1056   1.158       .  T
C1057      C1058   1.404       .  A
C1058      C1059   1.400       .  A
C1058      H1063   1.084       .  S
C1059      C1066   1.444       .  S
C1060      C1061   1.405   1_545  A
C1061      C1062   1.402       .  A
C1061      H1064   1.085       .  S
C1062      C1065   1.444       .  S
C1065      N1067   1.158       .  T
C1066      N1068   1.157       .  T
C1069      C1070   1.406   1_655  A
C1069      C2190   1.417       .  A
C1070      C1071   1.402       .  A
C1070      H1075   1.085       .  S
C1071      C2188   1.417   1_455  A
C1071      C1078   1.444       .  S
C1072      C2187   1.417       .  A
C1072      C1073   1.404       .  A
C1073      C1074   1.400       .  A
C1073      H1076   1.085       .  S
C1074      C2185   1.417       .  A
C1074      C1077   1.444       .  S
C1077      N1079   1.157       .  T
C1078      N1080   1.157       .  T
C1081      C2198   1.406       .  A
C1081      C1086   1.415       .  A
C1082      C2197   1.406   1_455  A
C1082      C1083   1.401       .  A
C1082      H1087   1.085       .  S
C1083      C2200   1.413   1_455  A
C1083      C1090   1.444       .  S
C1084      C2199   1.413       .  A
C1084      C1085   1.405       .  A
C1085      C1086   1.398       .  A
C1085      H1088   1.084       .  S
C1086      C1089   1.444       .  S
C1089      N1091   1.157       .  T
C1090      N1092   1.157       .  T
C1093      C2210   1.404       .  A
C1093      C1098   1.416       .  A
C1094      C2209   1.404   1_455  A
C1094      C1095   1.402       .  A
C1094      H1099   1.084       .  S
C1095      C1096   1.414   1_455  A
C1095      C1102   1.444       .  S
C1096      C2213   1.403       .  A
C1097      C2212   1.403       .  A
C1097      C1098   1.400       .  A
C1097      H1100   1.085       .  S
C1098      C1101   1.444       .  S
C1101      N1103   1.157       .  T
C1102      N1104   1.157       .  T
C1105      C1106   1.405       .  A
C1105      C1110   1.414   1_655  A
C1106      C1107   1.397       .  A
C1106      H2227   1.084       .  S
C1107      C1108   1.414       .  A
C1107      C2230   1.445       .  S
C1108      C1109   1.406   1_655  A
C1109      C1110   1.400       .  A
C1109      H1112   1.085       .  S
C1110      C1113   1.444       .  S
H1111      C2222   1.083       .  S
C1113      N1115   1.158       .  T
C1114      C2223   1.445       .  S
C1114      N1116   1.158       .  T
N1117      N1118   1.320       .  A
N1117      N1681   1.314       .  A
N1117     Mn1146   2.202       .  S
N1118      C1683   1.355       .  A
N1119      N1679   1.314   1_545  A
N1119      N1120   1.322       .  A
N1119     Mn1135   2.201       .  S
N1120      C1684   1.355       .  A
N1121      N1677   1.314       .  A
N1121      N1122   1.318       .  A
N1121     Mn1146   2.192       .  S
N1122      C1126   1.352       .  A
N1123      N1675   1.314   1_545  A
N1123      N1124   1.321       .  A
N1123     Mn1135   2.203       .  S
N1124      C1125   1.355       .  A
C1125      N1676   1.354   1_545  A
C1125      C1327   1.487       .  S
C1126      N1678   1.355       .  A
C1126      C1315   1.482       .  S
N1127      N1128   1.322       .  A
N1127     Mn1157   2.210       .  S
N1128      C1136   1.356       .  A
N1129      N1130   1.316       .  A
N1129     Mn1135   2.185       .  S
N1130      C1137   1.351       .  A
N1131      N1132   1.319       .  A
N1131     Mn1157   2.194       .  S
N1133      N1134   1.319       .  A
N1133     Mn1135   2.200       .  S
Mn1135    Cl1159   2.546       .  S
C1136      C1351   1.492       .  S
C1137      C1387   1.478       .  S
N1138      N1139   1.319       .  A
N1138     Mn1146   2.198       .  S
N1140      N1141   1.323       .  A
N1140     Mn1158   2.212       .  S
N1142      N1143   1.319       .  A
N1142     Mn1146   2.195       .  S
N1143      C1148   1.352       .  A
N1144      N1145   1.319       .  A
N1144     Mn1158   2.189       .  S
N1145      C1147   1.353       .  A
Mn1146    Cl1717   2.542       .  S
C1147      C1363   1.485       .  S
C1148      C1375   1.492       .  S
N1149      N1150   1.322       .  A
N1149      N1713   1.314   1_545  A
N1149     Mn1157   2.212       .  S
N1150      C1160   1.357       .  A
N1151      N1152   1.320       .  A
N1151      N1711   1.314       .  A
N1151     Mn1158   2.203       .  S
N1152      C1161   1.354       .  A
N1153      N1709   1.315   1_545  A
N1153      N1154   1.319       .  A
N1153     Mn1157   2.197       .  S
N1154      C1719   1.354       .  A
N1155      N1707   1.315       .  A
N1155      N1156   1.316       .  A
N1155     Mn1158   2.184       .  S
N1156      C1718   1.350       .  A
Cl1159    Mn1704   2.541   1_545  S
C1160      N1714   1.352   1_545  A
C1160      C1336   1.491       .  S
C1161      N1712   1.354       .  A
C1161      C1300   1.488       .  S
N1162      N1163   1.317       .  A
N1162     Mn1191   2.195       .  S
N1164      N1165   1.322       .  A
N1164     Mn1180   2.212       .  S
N1166      N1167   1.320       .  A
N1166     Mn1191   2.198       .  S
N1167      C1171   1.353       .  A
N1168      N1169   1.318       .  A
N1168     Mn1180   2.182       .  S
N1169      C1170   1.351       .  A
C1170      C1384   1.480       .  S
C1171      C1372   1.492       .  S
N1172      N1457   1.314       .  A
N1172      N1173   1.320       .  A
N1172     Mn1202   2.201       .  S
N1173      C1181   1.356       .  A
N1174      N1175   1.320       .  A
N1174      N1455   1.314   1_554  A
N1174     Mn1180   2.204       .  S
N1175      C1461   1.355   1_554  A
N1176      N1453   1.314       .  A
N1176      N1177   1.317       .  A
N1176     Mn1202   2.189       .  S
N1177      C1182   1.351       .  A
N1178      N1451   1.314   1_554  A
N1178      N1179   1.316       .  A
N1178     Mn1180   2.183       .  S
N1179      C1460   1.350   1_554  A
C1181      N1458   1.350       .  A
C1181      C1276   1.482       .  S
C1182      N1454   1.355       .  A
C1182      C1291   1.485       .  S
N1183      N1184   1.318       .  A
N1183      N1468   1.315   1_554  A
N1183     Mn1191   2.196       .  S
N1184      C1471   1.352   1_554  A
N1185      N1466   1.315       .  A
N1185      N1186   1.320       .  A
N1185     Mn1203   2.202       .  S
N1186      C1193   1.354       .  A
N1187      N1464   1.315   1_554  A
N1187      N1188   1.321       .  A
N1187     Mn1191   2.201       .  S
N1188      C1472   1.354   1_554  A
N1189      N1462   1.315       .  A
N1189      N1190   1.321       .  A
N1189     Mn1203   2.201       .  S
N1190      C1192   1.354       .  A
Mn1191    Cl1483   2.542   1_554  S
C1192      N1463   1.352       .  A
C1192      C1255   1.483       .  S
C1193      N1467   1.354       .  A
C1193      C1267   1.485       .  S
N1194      N1195   1.322       .  A
N1194     Mn1202   2.208       .  S
N1195      C1205   1.357       .  A
N1196      N1197   1.320       .  A
N1196     Mn1203   2.200       .  S
N1197      C1206   1.354       .  A
N1198      N1199   1.318       .  A
N1198     Mn1202   2.189       .  S
N1200      N1201   1.319       .  A
N1200     Mn1203   2.199       .  S
Mn1203    Cl1204   2.543       .  S
Cl1204    Mn1470   2.542       .  S
C1205      C1348   1.492       .  S
C1206      C1360   1.485       .  S
N1207      N1208   1.321       .  A
N1207      N1492   1.316       .  A
N1207     Mn1236   2.207       .  S
N1208      C1215   1.354       .  A
N1209      N1490   1.314   1_554  A
N1209      N1210   1.319       .  A
N1209     Mn1225   2.199       .  S
N1210      C1495   1.355   1_554  A
N1211      N1488   1.314       .  A
N1211      N1212   1.318       .  A
N1211     Mn1236   2.188       .  S
N1212      C1216   1.352       .  A
N1213      N1486   1.315   1_554  A
N1213      N1214   1.321       .  A
N1213     Mn1225   2.205       .  S
N1214      C1494   1.354   1_554  A
C1215      N1493   1.354       .  A
C1215      C1252   1.486       .  S
C1216      N1489   1.354       .  A
C1216      C1279   1.481       .  S
N1217      N1781   1.315   1_545  A
N1217      N1218   1.320       .  A
N1217     Mn1247   2.201       .  S
N1218      C1226   1.354   1_545  A
N1219      N1220   1.320       .  A
N1219      N1779   1.315       .  A
N1219     Mn1225   2.203       .  S
N1220      C1227   1.356       .  A
N1221      N1777   1.315   1_545  A
N1221      N1222   1.318       .  A
N1221     Mn1247   2.195       .  S
N1222      C1785   1.352       .  A
N1223      N1775   1.314       .  A
N1223      N1224   1.321       .  A
N1223     Mn1225   2.205       .  S
N1224      C1784   1.355       .  A
Mn1225    Cl1528   2.548   1_554  S
C1226      N1782   1.354       .  A
C1226      C1324   1.489       .  S
C1227      N1780   1.352       .  A
C1227      C1339   1.487       .  S
N1228      N1229   1.320       .  A
N1228      N1792   1.315       .  A
N1228     Mn1236   2.204       .  S
N1229      C1795   1.354       .  A
N1230      N1790   1.314   1_545  A
N1230      N1231   1.319       .  A
N1230     Mn1248   2.203       .  S
N1231      C1796   1.354       .  A
N1232      N1788   1.314       .  A
N1232      N1233   1.319       .  A
N1232     Mn1236   2.192       .  S
N1233      C1238   1.354       .  A
N1234      N1786   1.314   1_545  A
N1234      N1235   1.319       .  A
N1234     Mn1248   2.189       .  S
N1235      C1237   1.352       .  A
Mn1236    Cl1249   2.544       .  S
C1237      N1787   1.355   1_545  A
C1237      C1312   1.481       .  S
C1238      N1789   1.354       .  A
C1238      C1303   1.488       .  S
N1239      N1240   1.322       .  A
N1239      N1524   1.314   1_554  A
N1239     Mn1247   2.209       .  S
N1240      C1529   1.357   1_554  A
N1241      N1242   1.320       .  A
N1241      N1522   1.314       .  A
N1241     Mn1248   2.200       .  S
N1242      C1251   1.356       .  A
N1243      N1520   1.314   1_554  A
N1243      N1244   1.318       .  A
N1243     Mn1247   2.192       .  S
N1244      C1530   1.352   1_554  A
N1245      N1518   1.315       .  A
N1245      N1246   1.317       .  A
N1245     Mn1248   2.186       .  S
N1246      C1250   1.350       .  A
Mn1247    Cl2086   2.544   1_554  S
Mn1248    Cl1807   2.543       .  S
Cl1249    Mn1504   2.548       .  S
Cl1249    Mn2084   2.542       .  S
Cl1249    Mn1806   2.544       .  S
C1250      N1519   1.357       .  A
C1250      C1264   1.483       .  S
C1251      N1523   1.351       .  A
C1251      C1288   1.485       .  S
C1252      C1532   1.405       .  A
C1252      C1257   1.414       .  A
C1253      C1531   1.404   1_554  A
C1253      C1254   1.400       .  A
C1253      H1258   1.085       .  S
C1254      C1534   1.413   1_554  A
C1254      C1261   1.445       .  S
C1255      C1533   1.414       .  A
C1255      C1256   1.403       .  A
C1256      C1257   1.401       .  A
C1256      H1259   1.084       .  S
C1257      C1260   1.442       .  S
C1260      N1262   1.157       .  T
C1261      N1263   1.157       .  T
C1264      C1544   1.402       .  A
C1264      C1269   1.416       .  A
C1265      C1543   1.402   1_554  A
C1265      C1266   1.400       .  A
C1265      H1270   1.085       .  S
C1266      C1546   1.414   1_554  A
C1266      C1273   1.439       .  S
C1267      C1545   1.414       .  A
C1267      C1268   1.404       .  A
C1268      C1269   1.399       .  A
C1268      H1271   1.085       .  S
C1269      C1272   1.444       .  S
C1272      N1274   1.157       .  T
C1273      N1275   1.156       .  T
C1276      C1277   1.404       .  A
C1276      C1560   1.416       .  A
C1277      C1278   1.399       .  A
C1277      H1282   1.085       .  S
C1278      C1279   1.415       .  A
C1278      C1285   1.445       .  S
C1279      C1559   1.403       .  A
C1280      C1558   1.403   1_554  A
C1280      C1281   1.397       .  A
C1280      H1283   1.084       .  S
C1281      C1555   1.416   1_554  A
C1281      C1284   1.445       .  S
C1284      N1286   1.158       .  T
C1285      N1287   1.158       .  T
C1288      C1289   1.404       .  A
C1288      C1572   1.417       .  A
C1289      C1290   1.398       .  A
C1289      H1294   1.084       .  S
C1290      C1291   1.416       .  A
C1290      C1297   1.445       .  S
C1291      C1571   1.404       .  A
C1292      C1570   1.404   1_554  A
C1292      C1293   1.399       .  A
C1292      H1295   1.085       .  S
C1293      C1567   1.416   1_554  A
C1293      C1296   1.444       .  S
C1296      N1298   1.157       .  T
C1297      N1299   1.158       .  T
C1300      C1859   1.406       .  A
C1300      C1305   1.415       .  A
C1301      C1858   1.405       .  A
C1301      C1302   1.400       .  A
C1301      H1306   1.085       .  S
C1302      C1861   1.416       .  A
C1302      C1309   1.444       .  S
C1303      C1860   1.415       .  A
C1303      C1304   1.405       .  A
C1304      C1305   1.399       .  A
C1304      H1307   1.083       .  S
C1305      C1308   1.444       .  S
C1308      N1310   1.157       .  T
C1309      N1311   1.157       .  T
C1312      C1871   1.402   1_545  A
C1312      C1317   1.414       .  A
C1313      C1870   1.404       .  A
C1313      C1314   1.398       .  A
C1313      H1318   1.085       .  S
C1314      C1315   1.415       .  A
C1314      C1321   1.444       .  S
C1315      C1874   1.404       .  A
C1316      C1873   1.404   1_545  A
C1316      C1317   1.401       .  A
C1316      H1319   1.085       .  S
C1317      C1320   1.444       .  S
C1320      N1322   1.157       .  T
C1321      N1323   1.157       .  T
C1324      C1325   1.406   1_565  A
C1324      C1887   1.415       .  A
C1325      C1326   1.402       .  A
C1325      H1330   1.084       .  S
C1326      C1327   1.414       .  A
C1326      C1333   1.444       .  S
C1327      C1886   1.405   1_545  A
C1328      C1885   1.405       .  A
C1328      C1329   1.400       .  A
C1328      H1331   1.082       .  S
C1329      C1882   1.414       .  A
C1329      C1332   1.444       .  S
C1332      N1334   1.157       .  T
C1333      N1335   1.157       .  T
C1336      C1337   1.404       .  A
C1336      C1899   1.417   1_545  A
C1337      C1338   1.401       .  A
C1337      H1342   1.084       .  S
C1338      C1897   1.417       .  A
C1338      C1345   1.444       .  S
C1339      C1896   1.417       .  A
C1339      C1340   1.404       .  A
C1340      C1341   1.399       .  A
C1340      H1343   1.085       .  S
C1341      C1894   1.418       .  A
C1341      C1344   1.445       .  S
C1344      N1346   1.158       .  T
C1345      N1347   1.158       .  T
C1348      C1349   1.405       .  A
C1349      C1350   1.402       .  A
C1349      H1354   1.085       .  S
C1350      C1357   1.444       .  S
C1351      C1352   1.405       .  A
C1352      C1353   1.402       .  A
C1352      H1355   1.085       .  S
C1353      C1356   1.445       .  S
C1356      N1358   1.158       .  T
C1357      N1359   1.158       .  T
C1360      C1365   1.414       .  A
C1361      C1362   1.399       .  A
C1361      H1366   1.085       .  S
C1362      C1369   1.444       .  S
C1363      C1364   1.406       .  A
C1364      C1365   1.400       .  A
C1364      H1367   1.084       .  S
C1365      C1368   1.444       .  S
C1368      N1370   1.157       .  T
C1369      N1371   1.157       .  T
C1372      C1377   1.418       .  A
C1373      C1374   1.401       .  A
C1373      H1378   1.085       .  S
C1374      C1375   1.417       .  A
C1374      C1381   1.443       .  S
C1376      C1377   1.403       .  A
C1376      H1379   1.085       .  S
C1377      C1380   1.444       .  S
C1380      N1382   1.158       .  T
C1381      N1383   1.157       .  T
C1384      C1385   1.402       .  A
C1384      C1389   1.414       .  A
C1385      C1386   1.395       .  A
C1386      C1387   1.411       .  A
C1387      C1388   1.405       .  A
C1388      C1389   1.397       .  A
C1388      H1391   1.084       .  S
C1389      C1392   1.444       .  S
C1392      N1394   1.158       .  T
C1393      N1395   1.157       .  T
N1396      N1397   1.320       .  A
N1396      N1960   1.314       .  A
N1396     Mn1425   2.200       .  S
N1397      C1962   1.355       .  A
N1398      N1958   1.314   1_545  A
N1398      N1399   1.321       .  A
N1398     Mn1414   2.198       .  S
N1399      C1963   1.355       .  A
N1400      N1956   1.314       .  A
N1400      N1401   1.316       .  A
N1400     Mn1425   2.185       .  S
N1401      C1405   1.350       .  A
N1402      N1954   1.314   1_545  A
N1402      N1403   1.321       .  A
N1402     Mn1414   2.203       .  S
N1403      C1404   1.355       .  A
C1404      N1955   1.355   1_545  A
C1404      C1606   1.489       .  S
C1405      N1957   1.355       .  A
C1405      C1594   1.477       .  S
N1406      N1407   1.321       .  A
N1406     Mn1436   2.208       .  S
N1407      C1415   1.356       .  A
N1408      N1409   1.316       .  A
N1408     Mn1414   2.186       .  S
N1409      C1416   1.351       .  A
N1410      N1411   1.319       .  A
N1410     Mn1436   2.192       .  S
N1412      N1413   1.320       .  A
N1412     Mn1414   2.201       .  S
Mn1414    Cl1438   2.545       .  S
C1415      C1630   1.491       .  S
C1416      C1666   1.478       .  S
N1417      N1418   1.320       .  A
N1417     Mn1425   2.200       .  S
N1419      N1420   1.322       .  A
N1419     Mn1437   2.210       .  S
N1421      N1422   1.317       .  A
N1421     Mn1425   2.189       .  S
N1422      C1427   1.351       .  A
N1423      N1424   1.318       .  A
N1423     Mn1437   2.187       .  S
N1424      C1426   1.352       .  A
Mn1425    Cl1996   2.542       .  S
C1426      C1642   1.483       .  S
C1427      C1654   1.490       .  S
N1428      N1429   1.321       .  A
N1428      N1992   1.314   1_545  A
N1428     Mn1436   2.209       .  S
N1429      C1439   1.356       .  A
N1430      N1431   1.319       .  A
N1430      N1990   1.314       .  A
N1430     Mn1437   2.201       .  S
N1431      C1440   1.353       .  A
N1432      N1988   1.314   1_545  A
N1432      N1433   1.320       .  A
N1432     Mn1436   2.198       .  S
N1433      C1998   1.354       .  A
N1434      N1986   1.315       .  A
N1434      N1435   1.317       .  A
N1434     Mn1437   2.187       .  S
N1435      C1997   1.351       .  A
Cl1438    Mn1983   2.541   1_545  S
C1439      N1993   1.352   1_545  A
C1439      C1615   1.489       .  S
C1440      N1991   1.355       .  A
C1440      C1579   1.489       .  S
N1441      N1442   1.317       .  A
N1441     Mn1470   2.194       .  S
N1443      N1444   1.321       .  A
N1443     Mn1459   2.203       .  S
N1445      N1446   1.320       .  A
N1445     Mn1470   2.200       .  S
N1446      C1450   1.354       .  A
N1447      N1448   1.318       .  A
N1447     Mn1459   2.181       .  S
N1448      C1449   1.351       .  A
C1449      C1663   1.480       .  S
C1450      C1651   1.490       .  S
N1451      N1452   1.320       .  A
N1451     Mn1481   2.203       .  S
N1452      C1460   1.356       .  A
N1453      N1454   1.320       .  A
N1453     Mn1459   2.199       .  S
N1455      N1456   1.318       .  A
N1455     Mn1481   2.188       .  S
N1456      C1461   1.351       .  A
N1457      N1458   1.315       .  A
N1457     Mn1459   2.179       .  S
C1460      C1555   1.483       .  S
C1461      C1570   1.486       .  S
N1462      N1463   1.318       .  A
N1462     Mn1470   2.196       .  S
N1464      N1465   1.319       .  A
N1464     Mn1482   2.202       .  S
N1465      C1472   1.354       .  A
N1466      N1467   1.321       .  A
N1466     Mn1470   2.203       .  S
N1468      N1469   1.321       .  A
N1468     Mn1482   2.199       .  S
N1469      C1471   1.354       .  A
C1471      C1534   1.481       .  S
C1472      C1546   1.484       .  S
N1473      N1474   1.322       .  A
N1473     Mn1481   2.211       .  S
N1474      C1484   1.357       .  A
N1475      N1476   1.319       .  A
N1475     Mn1482   2.198       .  S
N1476      C1485   1.354       .  A
N1477      N1478   1.319       .  A
N1477     Mn1481   2.189       .  S
N1479      N1480   1.318       .  A
N1479     Mn1482   2.196       .  S
Mn1482    Cl1483   2.542       .  S
C1484      C1627   1.492       .  S
C1485      C1639   1.484       .  S
N1486      N1487   1.320       .  A
N1486     Mn1515   2.203       .  S
N1487      C1494   1.353       .  A
N1488      N1489   1.318       .  A
N1488     Mn1504   2.196       .  S
N1490      N1491   1.318       .  A
N1490     Mn1515   2.193       .  S
N1491      C1495   1.352       .  A
N1492      N1493   1.320       .  A
N1492     Mn1504   2.204       .  S
C1494      C1531   1.483       .  S
C1495      C1558   1.483       .  S
N1496      N2060   1.315   1_545  A
N1496      N1497   1.320       .  A
N1496     Mn1526   2.203       .  S
N1497      C1505   1.355   1_545  A
N1498      N1499   1.321       .  A
N1498      N2058   1.314       .  A
N1498     Mn1504   2.204       .  S
N1499      C1506   1.356       .  A
N1500      N2056   1.315   1_545  A
N1500      N1501   1.318       .  A
N1500     Mn1526   2.193       .  S
N1501      C2064   1.352       .  A
N1502      N2054   1.314       .  A
N1502      N1503   1.321       .  A
N1502     Mn1504   2.205       .  S
N1503      C2063   1.355       .  A
C1505      N2061   1.354       .  A
C1505      C1603   1.489       .  S
C1506      N2059   1.352       .  A
C1506      C1618   1.488       .  S
N1507      N1508   1.320       .  A
N1507      N2071   1.314       .  A
N1507     Mn1515   2.201       .  S
N1508      C2074   1.354       .  A
N1509      N2069   1.314   1_545  A
N1509      N1510   1.320       .  A
N1509     Mn1527   2.205       .  S
N1510      C2075   1.354       .  A
N1511      N2067   1.315       .  A
N1511      N1512   1.319       .  A
N1511     Mn1515   2.195       .  S
N1512      C1517   1.354       .  A
N1513      N2065   1.314   1_545  A
N1513      N1514   1.318       .  A
N1513     Mn1527   2.183       .  S
N1514      C1516   1.351       .  A
Mn1515    Cl1528   2.544       .  S
C1516      N2066   1.355   1_545  A
C1516      C1591   1.479       .  S
C1517      N2068   1.354       .  A
C1517      C1582   1.489       .  S
N1518      N1519   1.322       .  A
N1518     Mn1526   2.210       .  S
N1520      N1521   1.320       .  A
N1520     Mn1527   2.202       .  S
N1521      C1530   1.356       .  A
N1522      N1523   1.317       .  A
N1522     Mn1526   2.188       .  S
N1524      N1525   1.316       .  A
N1524     Mn1527   2.181       .  S
N1525      C1529   1.349       .  A
Mn1526    Cl1807   2.543       .  S
Mn1527    Cl2086   2.542       .  S
Cl1528    Mn1805   2.543   1_556  S
Cl1528    Mn2085   2.543       .  S
C1529      C1543   1.481       .  S
C1530      C1567   1.486       .  S
C1531      C1536   1.414       .  A
C1532      C1533   1.400       .  A
C1532      H1537   1.085       .  S
C1533      C1540   1.445       .  S
C1534      C1535   1.403       .  A
C1535      C1536   1.402       .  A
C1535      H1538   1.085       .  S
C1536      C1539   1.443       .  S
C1539      N1541   1.157       .  T
C1540      N1542   1.157       .  T
C1543      C1548   1.416       .  A
C1544      C1545   1.401       .  A
C1544      H1549   1.085       .  S
C1545      C1552   1.440       .  S
C1546      C1547   1.403       .  A
C1547      C1548   1.398       .  A
C1547      H1550   1.085       .  S
C1548      C1551   1.444       .  S
C1551      N1553   1.157       .  T
C1552      N1554   1.156       .  T
C1555      C1556   1.404       .  A
C1556      C1557   1.399       .  A
C1556      H1561   1.085       .  S
C1557      C1558   1.415       .  A
C1557      C1564   1.445       .  S
C1559      C1560   1.395       .  A
C1559      H1562   1.084       .  S
C1560      C1563   1.445       .  S
C1563      N1565   1.158       .  T
C1564      N1566   1.158       .  T
C1567      C1568   1.404       .  A
C1568      C1569   1.399       .  A
C1568      H1573   1.084       .  S
C1569      C1570   1.416       .  A
C1569      C1576   1.445       .  S
C1571      C1572   1.399       .  A
C1571      H1574   1.085       .  S
C1572      C1575   1.445       .  S
C1575      N1577   1.158       .  T
C1576      N1578   1.158       .  T
C1579      C2138   1.406       .  A
C1579      C1584   1.416       .  A
C1580      C2137   1.405       .  A
C1580      C1581   1.400       .  A
C1580      H1585   1.085       .  S
C1581      C2140   1.416       .  A
C1581      C1588   1.443       .  S
C1582      C2139   1.415       .  A
C1582      C1583   1.405       .  A
C1583      C1584   1.400       .  A
C1583      H1586   1.084       .  S
C1584      C1587   1.444       .  S
C1587      N1589   1.157       .  T
C1588      N1590   1.157       .  T
C1591      C2150   1.402   1_545  A
C1591      C1596   1.415       .  A
C1592      C2149   1.402       .  A
C1592      C1593   1.397       .  A
C1592      H1597   1.085       .  S
C1593      C1594   1.414       .  A
C1593      C1600   1.445       .  S
C1594      C2153   1.402       .  A
C1595      C2152   1.403       .  A
C1595      C1596   1.400       .  A
C1595      H1598   1.085       .  S
C1596      C1599   1.444       .  S
C1599      N1601   1.157       .  T
C1600      N1602   1.157       .  T
C1603      C1604   1.406   1_565  A
C1603      C2166   1.415       .  A
C1604      C1605   1.402       .  A
C1604      H1609   1.084       .  S
C1605      C1606   1.415       .  A
C1605      C1612   1.443       .  S
C1606      C2165   1.405   1_545  A
C1607      C2164   1.406       .  A
C1607      C1608   1.402       .  A
C1607      H1610   1.085       .  S
C1608      C2161   1.414       .  A
C1608      C1611   1.444       .  S
C1611      N1613   1.157       .  T
C1612      N1614   1.157       .  T
C1615      C1616   1.404       .  A
C1615      C2178   1.417   1_545  A
C1616      C1617   1.400       .  A
C1616      H1621   1.084       .  S
C1617      C2176   1.417       .  A
C1617      C1624   1.444       .  S
C1618      C2175   1.417       .  A
C1618      C1619   1.404       .  A
C1619      C1620   1.400       .  A
C1619      H1622   1.085       .  S
C1620      C2173   1.418       .  A
C1620      C1623   1.445       .  S
C1623      N1625   1.158       .  T
C1624      N1626   1.158       .  T
C1627      C1628   1.406       .  A
C1628      C1629   1.403       .  A
C1628      H1633   1.085       .  S
C1629      C1636   1.444       .  S
C1630      C1631   1.405       .  A
C1631      C1632   1.400       .  A
C1631      H1634   1.085       .  S
C1632      C1635   1.445       .  S
C1635      N1637   1.158       .  T
C1636      N1638   1.158       .  T
C1639      C1644   1.414       .  A
C1640      C1641   1.400       .  A
C1640      H1645   1.084       .  S
C1641      C1648   1.445       .  S
C1642      C1643   1.405       .  A
C1643      C1644   1.398       .  A
C1643      H1646   1.084       .  S
C1644      C1647   1.444       .  S
C1647      N1649   1.157       .  T
C1648      N1650   1.158       .  T
C1651      C1656   1.416       .  A
C1652      C1653   1.401       .  A
C1652      H1657   1.085       .  S
C1653      C1654   1.418       .  A
C1653      C1660   1.445       .  S
C1655      C1656   1.402       .  A
C1655      H1658   1.085       .  S
C1656      C1659   1.444       .  S
C1659      N1661   1.157       .  T
C1660      N1662   1.158       .  T
C1663      C1664   1.403       .  A
C1663      C1668   1.414       .  A
C1664      C1665   1.395       .  A
C1665      C1666   1.411       .  A
C1666      C1667   1.405       .  A
C1667      C1668   1.396       .  A
C1667      H1670   1.084       .  S
C1668      C1671   1.444       .  S
C1671      N1673   1.158       .  T
C1672      N1674   1.157       .  T
N1675      N1676   1.319       .  A
N1675     Mn1704   2.196       .  S
N1677      N1678   1.321       .  A
N1677     Mn1693   2.198       .  S
N1679      N1680   1.317       .  A
N1679     Mn1704   2.192       .  S
N1680      C1684   1.351   1_565  A
N1681      N1682   1.319       .  A
N1681     Mn1693   2.198       .  S
N1682      C1683   1.353       .  A
C1683      C1885   1.489       .  S
C1684      C1873   1.481   1_545  S
N1685      N1686   1.320       .  A
N1685     Mn1715   2.209       .  S
N1686      C1694   1.356       .  A
N1687      N1688   1.317       .  A
N1687     Mn1693   2.192       .  S
N1688      C1695   1.352       .  A
N1689      N1690   1.320       .  A
N1689     Mn1715   2.199       .  S
N1691      N1692   1.320       .  A
N1691     Mn1693   2.197       .  S
Mn1693    Cl1717   2.545       .  S
C1694      C1909   1.490       .  S
C1695      C1945   1.484       .  S
N1696      N1697   1.320       .  A
N1696     Mn1704   2.200       .  S
N1698      N1699   1.321       .  A
N1698     Mn1716   2.206       .  S
N1700      N1701   1.320       .  A
N1700     Mn1704   2.196       .  S
N1701      C1706   1.353       .  A
N1702      N1703   1.319       .  A
N1702     Mn1716   2.194       .  S
N1703      C1705   1.354       .  A
C1705      C1921   1.487       .  S
C1706      C1933   1.484       .  S
N1707      N1708   1.322       .  A
N1707     Mn1715   2.214       .  S
N1708      C1718   1.358       .  A
N1709      N1710   1.321       .  A
N1709     Mn1716   2.207       .  S
N1710      C1719   1.355   1_565  A
N1711      N1712   1.320       .  A
N1711     Mn1715   2.198       .  S
N1713      N1714   1.319       .  A
N1713     Mn1716   2.196       .  S
C1718      C1894   1.487       .  S
C1719      C1858   1.487       .  S
N1720      N1721   1.317       .  A
N1720     Mn1749   2.189       .  S
N1722      N1723   1.323       .  A
N1722     Mn1738   2.216       .  S
N1724      N1725   1.318       .  A
N1724     Mn1749   2.195       .  S
N1725      C1729   1.351       .  A
N1726      N1727   1.320       .  A
N1726     Mn1738   2.198       .  S
N1727      C1728   1.354       .  A
C1728      C1942   1.484       .  S
C1729      C1930   1.486       .  S
N1730      N2015   1.315       .  A
N1730      N1731   1.320       .  A
N1730     Mn1760   2.198       .  S
N1731      C1739   1.355       .  A
N1732      N1733   1.322       .  A
N1732      N2013   1.315   1_554  A
N1732     Mn1738   2.212       .  S
N1733      C2019   1.356   1_554  A
N1734      N2011   1.315       .  A
N1734      N1735   1.318       .  A
N1734     Mn1760   2.195       .  S
N1735      C1740   1.352       .  A
N1736      N2009   1.315   1_554  A
N1736      N1737   1.317       .  A
N1736     Mn1738   2.194       .  S
N1737      C2018   1.352   1_554  A
C1739      N2016   1.352       .  A
C1739      C1834   1.485       .  S
C1740      N2012   1.356       .  A
C1740      C1849   1.490       .  S
N1741      N1742   1.319       .  A
N1741      N2026   1.314   1_554  A
N1741     Mn1749   2.194       .  S
N1742      C2029   1.353   1_554  A
N1743      N2024   1.314       .  A
N1743      N1744   1.318       .  A
N1743     Mn1761   2.194       .  S
N1744      C1751   1.353       .  A
N1745      N2022   1.314   1_554  A
N1745      N1746   1.321       .  A
N1745     Mn1749   2.202       .  S
N1746      C2030   1.355   1_554  A
N1747      N2020   1.314       .  A
N1747      N1748   1.320       .  A
N1747     Mn1761   2.202       .  S
N1748      C1750   1.356       .  A
Mn1749    Cl2041   2.543   1_554  S
C1750      N2021   1.352       .  A
C1750      C1813   1.487       .  S
C1751      N2025   1.354       .  A
C1751      C1825   1.481       .  S
N1752      N1753   1.322       .  A
N1752     Mn1760   2.207       .  S
N1753      C1763   1.356       .  A
N1754      N1755   1.320       .  A
N1754     Mn1761   2.199       .  S
N1755      C1764   1.354       .  A
N1756      N1757   1.319       .  A
N1756     Mn1760   2.197       .  S
N1758      N1759   1.318       .  A
N1758     Mn1761   2.201       .  S
Mn1761    Cl1762   2.544       .  S
Cl1762    Mn2028   2.544       .  S
C1763      C1906   1.492       .  S
C1764      C1918   1.488       .  S
N1765      N1766   1.318       .  A
N1765      N2050   1.315       .  A
N1765     Mn1794   2.197       .  S
N1766      C1773   1.352       .  A
N1767      N2048   1.314   1_554  A
N1767      N1768   1.319       .  A
N1767     Mn1783   2.204       .  S
N1768      C2053   1.355   1_554  A
N1769      N2046   1.314       .  A
N1769      N1770   1.319       .  A
N1769     Mn1794   2.188       .  S
N1770      C1774   1.352       .  A
N1771      N2044   1.315   1_554  A
N1771      N1772   1.321       .  A
N1771     Mn1783   2.201       .  S
N1772      C2052   1.355   1_554  A
C1773      N2051   1.355       .  A
C1773      C1810   1.487       .  S
C1774      N2047   1.355       .  A
C1774      C1837   1.485       .  S
N1775      N1776   1.319       .  A
N1775     Mn1805   2.193       .  S
N1776      C1784   1.353       .  A
N1777      N1778   1.321       .  A
N1777     Mn1783   2.207       .  S
N1778      C1785   1.356   1_565  A
N1779      N1780   1.318       .  A
N1779     Mn1805   2.193       .  S
N1781      N1782   1.320       .  A
N1781     Mn1783   2.203       .  S
Mn1783    Cl2086   2.545   1_564  S
C1784      C1882   1.487       .  S
C1785      C1897   1.490       .  S
N1786      N1787   1.320       .  A
N1786     Mn1794   2.201       .  S
N1788      N1789   1.320       .  A
N1788     Mn1806   2.205       .  S
N1790      N1791   1.320       .  A
N1790     Mn1794   2.196       .  S
N1791      C1796   1.354   1_565  A
N1792      N1793   1.320       .  A
N1792     Mn1806   2.195       .  S
N1793      C1795   1.353       .  A
Mn1794    Cl1807   2.544   1_565  S
C1795      C1870   1.483       .  S
C1796      C1861   1.488       .  S
N1797      N1798   1.321       .  A
N1797      N2082   1.314   1_554  A
N1797     Mn1805   2.203       .  S
N1798      C2087   1.355   1_554  A
N1799      N1800   1.321       .  A
N1799      N2080   1.314       .  A
N1799     Mn1806   2.207       .  S
N1800      C1809   1.357       .  A
N1801      N2078   1.314   1_554  A
N1801      N1802   1.319       .  A
N1801     Mn1805   2.195       .  S
N1802      C2088   1.353   1_554  A
N1803      N2076   1.315       .  A
N1803      N1804   1.317       .  A
N1803     Mn1806   2.191       .  S
N1804      C1808   1.351       .  A
Cl1807    Mn2062   2.546   1_545  S
C1808      N2077   1.355       .  A
C1808      C1822   1.482       .  S
C1809      N2081   1.352       .  A
C1809      C1846   1.490       .  S
C1810      C2090   1.405       .  A
C1810      C1815   1.416       .  A
C1811      C2089   1.406   1_554  A
C1811      C1812   1.401       .  A
C1811      H1816   1.085       .  S
C1812      C2092   1.417   1_554  A
C1812      C1819   1.444       .  S
C1813      C2091   1.417       .  A
C1813      C1814   1.404       .  A
C1814      C1815   1.398       .  A
C1814      H1817   1.085       .  S
C1815      C1818   1.444       .  S
C1818      N1820   1.157       .  T
C1819      N1821   1.157       .  T
C1822      C2102   1.404       .  A
C1822      C1827   1.415       .  A
C1823      C2101   1.404   1_554  A
C1823      C1824   1.401       .  A
C1823      H1828   1.084       .  S
C1824      C2104   1.413   1_554  A
C1824      C1831   1.442       .  S
C1825      C2103   1.413       .  A
C1825      C1826   1.403       .  A
C1826      C1827   1.397       .  A
C1826      H1829   1.085       .  S
C1827      C1830   1.445       .  S
C1830      N1832   1.157       .  T
C1831      N1833   1.157       .  T
C1834      C1835   1.406       .  A
C1834      C2118   1.415       .  A
C1835      C1836   1.401       .  A
C1835      H1840   1.085       .  S
C1836      C1837   1.417       .  A
C1836      C1843   1.445       .  S
C1837      C2117   1.403       .  A
C1838      C2116   1.403   1_554  A
C1838      C1839   1.396       .  A
C1838      H1841   1.085       .  S
C1839      C2113   1.415   1_554  A
C1839      C1842   1.444       .  S
C1842      N1844   1.157       .  T
C1843      N1845   1.158       .  T
C1846      C1847   1.404       .  A
C1846      C2130   1.417       .  A
C1847      C1848   1.400       .  A
C1847      H1852   1.084       .  S
C1848      C1849   1.417       .  A
C1848      C1855   1.444       .  S
C1849      C2129   1.405       .  A
C1850      C2128   1.406   1_554  A
C1850      C1851   1.402       .  A
C1850      H1853   1.085       .  S
C1851      C2125   1.417   1_554  A
C1851      C1854   1.444       .  S
C1854      N1856   1.157       .  T
C1855      N1857   1.157       .  T
C1858      C1863   1.414   1_545  A
C1859      C1860   1.401       .  A
C1859      H1864   1.085       .  S
C1860      C1867   1.443       .  S
C1861      C1862   1.406   1_545  A
C1862      C1863   1.401       .  A
C1862      H1865   1.085       .  S
C1863      C1866   1.444       .  S
C1866      N1868   1.157       .  T
C1867      N1869   1.157       .  T
C1870      C1875   1.415       .  A
C1871      C1872   1.397       .  A
C1871      H1876   1.085       .  S
C1872      C1873   1.415       .  A
C1872      C1879   1.444       .  S
C1874      C1875   1.401       .  A
C1874      H1877   1.084       .  S
C1875      C1878   1.443       .  S
C1878      N1880   1.157       .  T
C1879      N1881   1.157       .  T
C1882      C1883   1.406       .  A
C1883      C1884   1.400       .  A
C1883      H1888   1.084       .  S
C1884      C1885   1.416       .  A
C1884      C1891   1.444       .  S
C1886      C1887   1.399       .  A
C1886      H1889   1.084       .  S
C1887      C1890   1.444       .  S
C1890      N1892   1.157       .  T
C1891      N1893   1.158       .  T
C1894      C1895   1.404       .  A
C1895      C1896   1.400       .  A
C1895      H1900   1.084       .  S
C1896      C1903   1.444       .  S
C1897      C1898   1.405   1_545  A
C1898      C1899   1.402       .  A
C1898      H1901   1.085       .  S
C1899      C1902   1.444       .  S
C1902      N1904   1.158       .  T
C1903      N1905   1.157       .  T
C1906      C1907   1.407       .  A
C1907      C1908   1.403       .  A
C1907      H1912   1.084       .  S
C1908      C1915   1.444       .  S
C1909      C1910   1.404       .  A
C1910      C1911   1.399       .  A
C1910      H1913   1.085       .  S
C1911      C1914   1.444       .  S
C1914      N1916   1.157       .  T
C1915      N1917   1.158       .  T
C1918      C1923   1.416       .  A
C1919      C1920   1.400       .  A
C1919      H1924   1.085       .  S
C1920      C1927   1.444       .  S
C1921      C1922   1.405       .  A
C1922      C1923   1.400       .  A
C1922      H1925   1.084       .  S
C1923      C1926   1.444       .  S
C1926      N1928   1.157       .  T
C1927      N1929   1.157       .  T
C1930      C1935   1.416       .  A
C1931      C1932   1.403       .  A
C1931      H1936   1.084       .  S
C1932      C1933   1.414       .  A
C1932      C1939   1.444       .  S
C1934      C1935   1.399       .  A
C1934      H1937   1.085       .  S
C1935      C1938   1.444       .  S
C1938      N1940   1.157       .  T
C1939      N1941   1.157       .  T
C1942      C1943   1.405       .  A
C1942      C1947   1.414       .  A
C1943      C1944   1.398       .  A
C1944      C1945   1.413       .  A
C1945      C1946   1.406       .  A
C1946      C1947   1.398       .  A
C1946      H1949   1.085       .  S
C1947      C1950   1.444       .  S
C1950      N1952   1.157       .  T
C1951      N1953   1.157       .  T
N1954      N1955   1.320       .  A
N1954     Mn1983   2.201       .  S
N1956      N1957   1.321       .  A
N1956     Mn1972   2.200       .  S
N1958      N1959   1.316       .  A
N1958     Mn1983   2.189       .  S
N1959      C1963   1.350   1_565  A
N1960      N1961   1.319       .  A
N1960     Mn1972   2.200       .  S
N1961      C1962   1.353       .  A
C1962      C2164   1.488       .  S
C1963      C2152   1.480       .  S
N1964      N1965   1.320       .  A
N1964     Mn1994   2.208       .  S
N1965      C1973   1.356       .  A
N1966      N1967   1.318       .  A
N1966     Mn1972   2.195       .  S
N1967      C1974   1.353       .  A
N1968      N1969   1.319       .  A
N1968     Mn1994   2.198       .  S
N1970      N1971   1.320       .  A
N1970     Mn1972   2.196       .  S
Mn1972    Cl1996   2.544       .  S
C1973      C2188   1.489       .  S
C1974      C2224   1.485       .  S
N1975      N1976   1.321       .  A
N1975     Mn1983   2.204       .  S
N1977      N1978   1.320       .  A
N1977     Mn1995   2.204       .  S
N1979      N1980   1.320       .  A
N1979     Mn1983   2.195       .  S
N1980      C1985   1.353       .  A
N1981      N1982   1.318       .  A
N1981     Mn1995   2.190       .  S
N1982      C1984   1.353       .  A
C1984      C2200   1.485       .  S
C1985      C2212   1.482       .  S
N1986      N1987   1.322       .  A
N1986     Mn1994   2.214       .  S
N1987      C1997   1.357       .  A
N1988      N1989   1.320       .  A
N1988     Mn1995   2.204       .  S
N1989      C1998   1.354   1_565  A
N1990      N1991   1.320       .  A
N1990     Mn1994   2.199       .  S
N1992      N1993   1.319       .  A
N1992     Mn1995   2.193       .  S
C1997      C2173   1.488       .  S
C1998      C2137   1.488       .  S
N1999      N2000   1.317       .  A
N1999     Mn2028   2.190       .  S
N2001      N2002   1.322       .  A
N2001     Mn2017   2.211       .  S
N2003      N2004   1.319       .  A
N2003     Mn2028   2.195       .  S
N2004      C2008   1.352       .  A
N2005      N2006   1.320       .  A
N2005     Mn2017   2.200       .  S
N2006      C2007   1.354       .  A
C2007      C2221   1.485       .  S
C2008      C2209   1.485       .  S
N2009      N2010   1.320       .  A
N2009     Mn2039   2.195       .  S
N2010      C2018   1.354       .  A
N2011      N2012   1.321       .  A
N2011     Mn2017   2.208       .  S
N2013      N2014   1.319       .  A
N2013     Mn2039   2.199       .  S
N2014      C2019   1.353       .  A
N2015      N2016   1.317       .  A
N2015     Mn2017   2.196       .  S
C2018      C2113   1.483       .  S
C2019      C2128   1.492       .  S
N2020      N2021   1.319       .  A
N2020     Mn2028   2.192       .  S
N2022      N2023   1.318       .  A
N2022     Mn2040   2.193       .  S
N2023      C2030   1.353       .  A
N2024      N2025   1.321       .  A
N2024     Mn2028   2.200       .  S
N2026      N2027   1.320       .  A
N2026     Mn2040   2.202       .  S
N2027      C2029   1.356       .  A
C2029      C2092   1.488       .  S
C2030      C2104   1.483       .  S
N2031      N2032   1.322       .  A
N2031     Mn2039   2.206       .  S
N2032      C2042   1.356       .  A
N2033      N2034   1.319       .  A
N2033     Mn2040   2.196       .  S
N2034      C2043   1.353       .  A
N2035      N2036   1.320       .  A
N2035     Mn2039   2.201       .  S
N2037      N2038   1.318       .  A
N2037     Mn2040   2.199       .  S
Mn2040    Cl2041   2.544       .  S
C2042      C2185   1.491       .  S
C2043      C2197   1.487       .  S
N2044      N2045   1.318       .  A
N2044     Mn2073   2.198       .  S
N2045      C2052   1.353       .  A
N2046      N2047   1.319       .  A
N2046     Mn2062   2.205       .  S
N2048      N2049   1.319       .  A
N2048     Mn2073   2.186       .  S
N2049      C2053   1.351       .  A
N2050      N2051   1.321       .  A
N2050     Mn2062   2.200       .  S
C2052      C2089   1.488       .  S
C2053      C2116   1.483       .  S
N2054      N2055   1.318       .  A
N2054     Mn2084   2.196       .  S
N2055      C2063   1.353       .  A
N2056      N2057   1.321       .  A
N2056     Mn2062   2.207       .  S
N2057      C2064   1.356   1_565  A
N2058      N2059   1.318       .  A
N2058     Mn2084   2.193       .  S
N2060      N2061   1.320       .  A
N2060     Mn2062   2.202       .  S
C2063      C2161   1.487       .  S
C2064      C2176   1.489       .  S
N2065      N2066   1.319       .  A
N2065     Mn2073   2.201       .  S
N2067      N2068   1.320       .  A
N2067     Mn2085   2.206       .  S
N2069      N2070   1.320       .  A
N2069     Mn2073   2.196       .  S
N2070      C2075   1.354   1_565  A
N2071      N2072   1.319       .  A
N2071     Mn2085   2.190       .  S
N2072      C2074   1.351       .  A
Mn2073    Cl2086   2.544   1_565  S
C2074      C2149   1.477       .  S
C2075      C2140   1.489       .  S
N2076      N2077   1.321       .  A
N2076     Mn2084   2.202       .  S
N2078      N2079   1.321       .  A
N2078     Mn2085   2.207       .  S
N2079      C2088   1.357       .  A
N2080      N2081   1.319       .  A
N2080     Mn2084   2.193       .  S
N2082      N2083   1.318       .  A
N2082     Mn2085   2.190       .  S
N2083      C2087   1.351       .  A
C2087      C2101   1.482       .  S
C2088      C2125   1.491       .  S
C2089      C2094   1.416       .  A
C2090      C2091   1.401       .  A
C2090      H2095   1.085       .  S
C2091      C2098   1.444       .  S
C2092      C2093   1.404       .  A
C2093      C2094   1.398       .  A
C2093      H2096   1.085       .  S
C2094      C2097   1.444       .  S
C2097      N2099   1.157       .  T
C2098      N2100   1.157       .  T
C2101      C2106   1.415       .  A
C2102      C2103   1.401       .  A
C2102      H2107   1.084       .  S
C2103      C2110   1.443       .  S
C2104      C2105   1.404       .  A
C2105      C2106   1.398       .  A
C2105      H2108   1.085       .  S
C2106      C2109   1.444       .  S
C2109      N2111   1.157       .  T
C2110      N2112   1.157       .  T
C2113      C2114   1.405       .  A
C2114      C2115   1.400       .  A
C2114      H2119   1.085       .  S
C2115      C2116   1.417       .  A
C2115      C2122   1.445       .  S
C2117      C2118   1.397       .  A
C2117      H2120   1.085       .  S
C2118      C2121   1.444       .  S
C2121      N2123   1.157       .  T
C2122      N2124   1.158       .  T
C2125      C2126   1.404       .  A
C2126      C2127   1.400       .  A
C2126      H2131   1.084       .  S
C2127      C2128   1.417       .  A
C2127      C2134   1.444       .  S
C2129      C2130   1.402       .  A
C2129      H2132   1.085       .  S
C2130      C2133   1.444       .  S
C2133      N2135   1.158       .  T
C2134      N2136   1.157       .  T
C2137      C2142   1.415   1_545  A
C2138      C2139   1.401       .  A
C2138      H2143   1.085       .  S
C2139      C2146   1.443       .  S
C2140      C2141   1.406   1_545  A
C2141      C2142   1.402       .  A
C2141      H2144   1.085       .  S
C2142      C2145   1.444       .  S
C2145      N2147   1.157       .  T
C2146      N2148   1.157       .  T
C2149      C2154   1.414       .  A
C2150      C2151   1.396       .  A
C2150      H2155   1.085       .  S
C2151      C2152   1.415   1_565  A
C2151      C2158   1.444       .  S
C2153      C2154   1.400       .  A
C2153      H2156   1.084       .  S
C2154      C2157   1.444       .  S
C2157      N2159   1.157       .  T
C2158      N2160   1.157       .  T
C2161      C2162   1.405       .  A
C2162      C2163   1.399       .  A
C2162      H2167   1.085       .  S
C2163      C2164   1.416       .  A
C2163      C2170   1.444       .  S
C2165      C2166   1.400       .  A
C2165      H2168   1.084       .  S
C2166      C2169   1.444       .  S
C2169      N2171   1.157       .  T
C2170      N2172   1.157       .  T
C2173      C2174   1.404       .  A
C2174      C2175   1.400       .  A
C2174      H2179   1.084       .  S
C2175      C2182   1.444       .  S
C2176      C2177   1.405   1_545  A
C2177      C2178   1.401       .  A
C2177      H2180   1.085       .  S
C2178      C2181   1.445       .  S
C2181      N2183   1.158       .  T
C2182      N2184   1.157       .  T
C2185      C2186   1.406       .  A
C2186      C2187   1.403       .  A
C2186      H2191   1.085       .  S
C2187      C2194   1.444       .  S
C2188      C2189   1.404       .  A
C2189      C2190   1.399       .  A
C2189      H2192   1.085       .  S
C2190      C2193   1.444       .  S
C2193      N2195   1.157       .  T
C2194      N2196   1.158       .  T
C2197      C2202   1.415       .  A
C2198      C2199   1.401       .  A
C2198      H2203   1.085       .  S
C2199      C2206   1.444       .  S
C2200      C2201   1.405       .  A
C2201      C2202   1.398       .  A
C2201      H2204   1.084       .  S
C2202      C2205   1.444       .  S
C2205      N2207   1.157       .  T
C2206      N2208   1.157       .  T
C2209      C2214   1.416       .  A
C2210      C2211   1.402       .  A
C2210      H2215   1.084       .  S
C2211      C2212   1.413       .  A
C2211      C2218   1.444       .  S
C2213      C2214   1.400       .  A
C2213      H2216   1.085       .  S
C2214      C2217   1.444       .  S
C2217      N2219   1.157       .  T
C2218      N2220   1.157       .  T
C2221      C2222   1.405       .  A
C2221      C2226   1.414       .  A
C2222      C2223   1.397       .  A
C2223      C2224   1.414       .  A
C2224      C2225   1.406       .  A
C2225      C2226   1.399       .  A
C2225      H2228   1.085       .  S
C2226      C2229   1.444       .  S
C2229      N2231   1.158       .  T
C2230      N2232   1.157       .  T
