geometry optimzed in LAMMPS
_audit_creation_date              2020-12-01 
_audit_creation_method            'lammps2cif' 
_symmetry_space_group_name_H-M    'P1' 
_symmetry_Int_Tables_number       1 
_symmetry_cell_setting            triclinic 
loop_ 
_symmetry_equiv_pos_as_xyz 
  x,y,z 
_cell_length_a                    23.14965299 
_cell_length_b                    33.86614065149156 
_cell_length_c                    34.17924838058645 
_cell_angle_alpha                 90.44203194824122 
_cell_angle_beta                  90.14203234839165 
_cell_angle_gamma                 89.86028235041408 
loop_ 
_atom_site_label 
_atom_site_type_symbol 
_atom_site_fract_x 
_atom_site_fract_y 
_atom_site_fract_z 
_atom_site_charge 
O1          O  0.34982346  0.26816503  0.02503329    -0.88600
C2          C  0.19433502  0.29767469  0.06961365     0.87500
Mg3        Mg  0.37436135  0.28118127  0.96668382     1.58100
O4          O  0.21268970  0.19710338  0.04831465    -0.88300
O5          O  0.34354604  0.21692269  0.06358475    -0.75600
C6          C  0.14908920  0.22484371  0.85903838     0.92500
O7          O  0.26949639  0.34167247  0.00465581    -0.75400
O8          O  0.19315719  0.24717545  0.85672861    -0.82900
Mg9        Mg  0.31502119  0.31571845  0.05873927     1.58000
C10         C  0.08969924  0.13367781  0.99063128     0.92400
O11         O  0.36290247  0.29422356  0.11399387    -0.81200
H12         H  0.25683025  0.14671421  0.05464348    -0.06600
C13         C  0.13025355  0.26145070  0.96430258     0.87400
O14         O  0.35227907  0.21786991  0.94741274    -0.75700
O15         O  0.24133816  0.28023433  0.07064562    -0.88500
O16         O  0.09696396  0.15508251  0.02107463    -0.81300
C17         C  0.12121373  0.21754974  0.13129017     0.92600
C18         C  0.35245271  0.27353197  0.14418067     0.92400
Mg19       Mg  0.18570157  0.18344154  0.94487812     1.58000
O20         O  0.13821279  0.20476374  0.88953413    -0.81200
O21         O  0.23076128  0.15707069  0.99890766    -0.75500
O22         O  0.17444036  0.22688173  0.13449612    -0.81300
O23         O  0.38986580  0.35655336  0.04586519    -0.83000
O24         O  0.32749867  0.27171699  0.86926095    -0.81300
C25         C  0.23373785  0.16612134  0.03506691     0.86800
O26         O  0.25989936  0.21859257  0.93305487    -0.88500
O27         O  0.15128442  0.23114990  0.97853080    -0.88600
O28         O  0.15749025  0.28193032  0.93940918    -0.75600
Mg29       Mg  0.25742495  0.22375457  0.09643853     1.58000
O30         O  0.09872120  0.20772798  0.09869705    -0.83000
H31         H  0.41286074  0.22791656  0.02912699    -0.06700
O32         O  0.28831522  0.30192365  0.95508910    -0.88300
H33         H  0.24316562  0.35192231  0.94895622    -0.06600
H34         H  0.30912958  0.17058541  0.92532595    -0.06700
C35         C  0.26667439  0.33267561  0.96846379     0.86800
C36         C  0.37081717  0.23770853  0.03897079     0.87400
C37         C  0.30695855  0.20122856  0.93431432     0.87500
H38         H  0.08817540  0.27130765  0.97401486    -0.06700
O39         O  0.14894769  0.28123154  0.05641431    -0.75700
Mg40       Mg  0.24396575  0.27491448  0.90685715     1.58000
H41         H  0.19230978  0.32825852  0.07881740    -0.06700
C42         C  0.41044082  0.36624322  0.01282665     0.92400
O43         O  0.40299820  0.29129298  0.90510845    -0.83000
C44         C  0.38068967  0.28116556  0.87256370     0.92500
O45         O  0.30861496  0.25100274  0.14633753    -0.83000
Mg46       Mg  0.12681414  0.21806226  0.03700629     1.58200
O47         O  0.40397447  0.34431720  0.98264209    -0.81300
O48         O  0.10998487  0.14355324  0.95759013    -0.83000
O49         O  0.84824808  0.76889399  0.02188087    -0.88600
C50         C  0.69214620  0.79816247  0.06609051     0.87500
Mg51       Mg  0.87322517  0.78248142  0.96369741     1.58100
O52         O  0.71091042  0.69768639  0.04440114    -0.88300
O53         O  0.84172645  0.71757477  0.06030054    -0.75600
C54         C  0.64807623  0.72812687  0.85565513     0.92500
O55         O  0.76864152  0.84311067  0.00191179    -0.75400
O56         O  0.69216074  0.75043917  0.85372693    -0.82900
Mg57       Mg  0.81331113  0.81626453  0.05581176     1.58000
C58         C  0.58945905  0.63378675  0.98572291     0.92400
O59         O  0.86051801  0.79453947  0.11091793    -0.81200
H60         H  0.75573597  0.64751468  0.05026096    -0.06600
C61         C  0.62918138  0.76292972  0.96111081     0.87400
O62         O  0.85112314  0.71946732  0.94365741    -0.75700
O63         O  0.73922596  0.78080252  0.06703129    -0.88500
O64         O  0.59566528  0.65550672  0.01609765    -0.81300
C65         C  0.61856014  0.71790323  0.12709803     0.92600
C66         C  0.84983394  0.77404879  0.14114813     0.92400
Mg67       Mg  0.68482817  0.68498920  0.94067005     1.58000
O68         O  0.63727692  0.70724431  0.88564354    -0.81200
O69         O  0.72990788  0.65833866  0.99456497    -0.75500
O70         O  0.67179249  0.72720549  0.13032024    -0.81300
O71         O  0.88885163  0.85653083  0.04387816    -0.83000
O72         O  0.82653812  0.77412087  0.86612139    -0.81300
C73         C  0.73248708  0.66699611  0.03084139     0.86800
O74         O  0.75872517  0.72058888  0.92945648    -0.88500
O75         O  0.64974252  0.73219393  0.97477153    -0.88600
O76         O  0.65678688  0.78384907  0.93675573    -0.75600
Mg77       Mg  0.75523919  0.72427647  0.09281208     1.58000
O78         O  0.59596678  0.70792758  0.09457589    -0.83000
H79         H  0.91125330  0.72862409  0.02604199    -0.06700
O80         O  0.78748608  0.80354426  0.95228088    -0.88300
H81         H  0.74333922  0.85395230  0.94611400    -0.06600
H82         H  0.80772206  0.67261202  0.92091404    -0.06700
C83         C  0.76621682  0.83439731  0.96566103     0.86800
C84         C  0.86914528  0.73839162  0.03578208     0.87400
C85         C  0.80571148  0.70312079  0.93036523     0.87500
H86         H  0.58719766  0.77283467  0.97096422    -0.06700
O87         O  0.64677369  0.78164956  0.05291888    -0.75700
Mg88       Mg  0.74308555  0.77721218  0.90394509     1.58000
H89         H  0.68998957  0.82869514  0.07544925    -0.06700
C90         C  0.90941622  0.86663984  0.01099848     0.92400
O91         O  0.90195388  0.79332022  0.90218601    -0.83000
C92         C  0.87976960  0.78346690  0.86949983     0.92500
O93         O  0.80594837  0.75153265  0.14320703    -0.83000
Mg94       Mg  0.62486836  0.71854066  0.03294671     1.58200
O95         O  0.90273735  0.84532369  0.98042390    -0.81300
O96         O  0.60990909  0.64387548  0.95276777    -0.83000
O97         O  0.84844011  0.23015723  0.47743742    -0.88600
C98         C  0.69165223  0.20449904  0.43228142     0.87500
Mg99       Mg  0.87338308  0.21530696  0.53545565     1.58100
O100        O  0.71437906  0.30379886  0.45644545    -0.88300
O101        O  0.84419061  0.28224653  0.43992672    -0.75600
C102        C  0.65189220  0.27251268  0.64557958     0.92500
O103        O  0.76527056  0.15775938  0.49624145    -0.75400
O104        O  0.69463663  0.24875904  0.64668567    -0.82900
Mg105      Mg  0.81092257  0.18395659  0.44269068     1.58000
C106        C  0.59464837  0.36832092  0.51523735     0.92400
O107        O  0.85880065  0.20501895  0.38766926    -0.81200
H108        H  0.76019352  0.35346942  0.45131308    -0.06600
C109        C  0.63023610  0.23920344  0.53920804     0.87400
O110        O  0.85360528  0.27830444  0.55683289    -0.75700
O111        O  0.73914097  0.22115031  0.43182065    -0.88500
O112        O  0.60138665  0.34679281  0.48490955    -0.81300
C113        C  0.62113516  0.28713111  0.37313146     0.92600
C114        C  0.84970074  0.22685685  0.35804918     0.92400
Mg115      Mg  0.68855977  0.31591063  0.56044437     1.58000
O116        O  0.64200057  0.29428609  0.61596405    -0.81200
O117        O  0.73390011  0.34239503  0.50675487    -0.75500
O118        O  0.67389938  0.27661298  0.36976057    -0.81300
O119        O  0.88336201  0.14141528  0.45414206    -0.83000
O120        O  0.82807776  0.22285137  0.63317492    -0.81300
C121        C  0.73651946  0.33406457  0.47041744     0.86800
O122        O  0.76143231  0.27893308  0.57130385    -0.88500
O123        O  0.65230999  0.26938200  0.52568891    -0.88600
O124        O  0.65700582  0.21744999  0.56340601    -0.75600
Mg125      Mg  0.75740579  0.27773087  0.40738132     1.58000
O126        O  0.59963170  0.29706222  0.40596486    -0.83000
H127        H  0.91332898  0.26883592  0.47399451    -0.06700
O128        O  0.78689469  0.19568167  0.54666118    -0.88300
H129        H  0.73993652  0.14653091  0.55183250    -0.06600
H130        H  0.81239778  0.32567325  0.58054500    -0.06700
C131        C  0.76378329  0.16577103  0.53266177     0.86800
C132        C  0.87074382  0.26031523  0.46405472     0.87400
C133        C  0.80904994  0.29540016  0.57054784     0.87500
H134        H  0.58764341  0.23054673  0.52940105    -0.06700
O135        O  0.64699745  0.22120466  0.44625126    -0.75700
Mg136      Mg  0.74409588  0.22202711  0.59573397     1.58000
H137        H  0.68861056  0.17430643  0.42199596    -0.06700
C138        C  0.90595879  0.13148378  0.48650409     0.92400
O139        O  0.90204614  0.20217551  0.59677603    -0.83000
C140        C  0.88071545  0.21197632  0.62970091     0.91700
O141        O  0.80727740  0.25086238  0.35664183    -0.83000
Mg142      Mg  0.62798409  0.28420240  0.46740859     1.58200
O143        O  0.90173752  0.15299940  0.51709761    -0.81300
O144        O  0.61387203  0.35797876  0.54855202    -0.83000
O145        O  0.34767054  0.73057885  0.47378622    -0.88600
C146        C  0.19085545  0.70353336  0.42973628     0.87500
Mg147      Mg  0.37262826  0.71654208  0.53207730     1.58100
O148        O  0.21226553  0.80346312  0.45299558    -0.88300
O149        O  0.34237179  0.78228443  0.43585590    -0.75600
C150        C  0.15132513  0.77367761  0.64242043     0.92500
O151        O  0.26687386  0.65748986  0.49379548    -0.75400
O152        O  0.19410035  0.74995490  0.64382563    -0.82900
Mg153      Mg  0.31144936  0.68358773  0.43961031     1.58000
C154        C  0.09250937  0.86744021  0.51286171     0.92400
O155        O  0.35719351  0.70470524  0.38366670    -0.81200
H156        H  0.25825382  0.85297617  0.44727599    -0.06600
C157        C  0.12949938  0.73914498  0.53650240     0.87400
O158        O  0.35285828  0.77964844  0.55268007    -0.75700
O159        O  0.23829893  0.72021628  0.42869286    -0.88500
O160        O  0.09709679  0.84584573  0.48235411    -0.81300
C161        C  0.11846130  0.78639734  0.37020923     0.92600
C162        C  0.34735659  0.72648037  0.35405301     0.92400
Mg163      Mg  0.18842936  0.81597078  0.55695685     1.58000
O164        O  0.14153935  0.79508119  0.61256479    -0.81200
O165        O  0.23324099  0.84208061  0.50300671    -0.75500
O166        O  0.17119274  0.77581498  0.36664915    -0.81300
O167        O  0.38662726  0.64204386  0.45147193    -0.83000
O168        O  0.32752759  0.72478763  0.62980821    -0.81300
C169        C  0.23484463  0.83370972  0.46666602     0.86800
O170        O  0.26093806  0.77942104  0.56782917    -0.88500
O171        O  0.15138349  0.76924480  0.52269389    -0.88600
O172        O  0.15648666  0.71764538  0.56079548    -0.75600
Mg173      Mg  0.25515573  0.77710649  0.40392996     1.58000
O174        O  0.09707952  0.79604209  0.40316113    -0.83000
H175        H  0.41217013  0.76947233  0.46953990    -0.06700
O176        O  0.28647613  0.69664691  0.54366659    -0.88300
H177        H  0.24116702  0.64684157  0.54945016    -0.06600
H178        H  0.31110276  0.82664405  0.57663568    -0.06700
C179        C  0.26449614  0.66615899  0.53006631     0.86800
C180        C  0.36950969  0.76069187  0.45998380     0.87400
C181        C  0.30823312  0.79630316  0.56677100     0.87500
H182        H  0.08690494  0.73032088  0.52684978    -0.06700
O183        O  0.14626547  0.72047367  0.44357835    -0.75700
Mg184      Mg  0.24364494  0.72292798  0.59280801     1.58000
H185        H  0.18773318  0.67318565  0.41993233    -0.06700
C186        C  0.40676571  0.63223344  0.48468937     0.92400
O187        O  0.40178770  0.70448726  0.59351763    -0.83000
C188        C  0.38037066  0.71451762  0.62634652     0.92500
O189        O  0.30475899  0.75036997  0.35304976    -0.83000
Mg190      Mg  0.12602433  0.78350953  0.46453107     1.58200
O191        O  0.40016090  0.65396662  0.51490639    -0.81300
O192        O  0.11504700  0.85772426  0.54532024    -0.83000
C193        C  0.04157053  0.04207277  0.55352201    -0.18100
C194        C  0.06619148  0.00466439  0.55795496    -0.20200
C195        C  0.05128983  0.97374371  0.53233966     0.20400
C196        C  0.01154659  0.98055225  0.50175510    -0.03100
C197        C  0.98679259  0.01829063  0.49724599    -0.06200
C198        C  0.00171155  0.04911545  0.52339073     0.20700
C199        C  0.94698335  0.02511275  0.46670155     0.18900
C200        C  0.93212829  0.99418643  0.44106248    -0.17700
C201        C  0.95684579  0.95677774  0.44545296    -0.19900
C202        C  0.99669437  0.94971810  0.47560185     0.20400
C203        C  0.02240523  0.91249996  0.47981846    -0.32900
C204        C  0.06221791  0.90562741  0.51012227     0.01100
C205        C  0.07595185  0.93625326  0.53651389    -0.24300
C206        C  0.97604565  0.08632280  0.51922581    -0.28800
C207        C  0.93609058  0.09322324  0.48903999     0.06700
C208        C  0.92224402  0.06262193  0.46261995    -0.27500
H209        H  0.05356106  0.06546694  0.57373858     0.11400
H210        H  0.09688448  0.99990471  0.58145122     0.12600
H211        H  0.90140760  0.99894257  0.41758188     0.11700
H212        H  0.94489608  0.93339005  0.42521744     0.10900
H213        H  0.01168504  0.88894588  0.45942041     0.16300
H214        H  0.10717766  0.93124153  0.55966328     0.12200
H215        H  0.98689349  0.10985896  0.53961384     0.15100
H216        H  0.89093487  0.06767548  0.43953199     0.14800
C217        C  0.46590187  0.52054853  0.56723784    -0.18100
C218        C  0.49103946  0.48325567  0.57157367    -0.20200
C219        C  0.51541468  0.46365201  0.53927652     0.20400
C220        C  0.51412434  0.48173039  0.50216508    -0.03100
C221        C  0.48881545  0.51937460  0.49779383    -0.06200
C222        C  0.46475296  0.53884350  0.53053996     0.20700
C223        C  0.48738713  0.53742186  0.46067034     0.18900
C224        C  0.51183581  0.51783694  0.42837831    -0.17700
C225        C  0.53704973  0.48055526  0.43272635    -0.19900
C226        C  0.53815137  0.46223742  0.46942356     0.20400
C227        C  0.56315527  0.42486225  0.47396986    -0.32900
C228        C  0.56524227  0.40682086  0.51091826     0.01100
C229        C  0.54129689  0.42640882  0.54346581    -0.24300
C230        C  0.43947845  0.57611798  0.52599163    -0.28800
C231        C  0.43700519  0.59404962  0.48902316     0.06700
C232        C  0.46113590  0.57455578  0.45646582    -0.27500
H233        H  0.44733707  0.53509865  0.59261642     0.11400
H234        H  0.49149225  0.46976798  0.60021591     0.12600
H235        H  0.51130312  0.53130215  0.39972508     0.11700
H236        H  0.55559146  0.46599489  0.40734503     0.10900
H237        H  0.58210182  0.41014323  0.44878929     0.16300
H238        H  0.54271345  0.41264913  0.57198885     0.12200
H239        H  0.42042545  0.59077866  0.55116835     0.15100
H240        H  0.45945634  0.58826220  0.42792208     0.14800
C241        C  0.11066158  0.75637242  0.78306644    -0.18100
C242        C  0.07252481  0.75785502  0.81467534    -0.20200
C243        C  0.01476742  0.76919600  0.80910375     0.20400
C244        C  0.99504403  0.77911192  0.77137354    -0.03100
C245        C  0.03382865  0.77824055  0.73955213    -0.06200
C246        C  0.09181100  0.76657538  0.74543922     0.20700
C247        C  0.01460826  0.78899173  0.70191556     0.18900
C248        C  0.95663203  0.79997851  0.69634824    -0.17700
C249        C  0.91794583  0.80024760  0.72780014    -0.19900
C250        C  0.93668166  0.78995200  0.76546450     0.20400
C251        C  0.89837538  0.79056834  0.79737531    -0.32900
C252        C  0.91834302  0.78162193  0.83516448     0.01100
C253        C  0.97651376  0.77092009  0.84069457    -0.24300
C254        C  0.12991651  0.76519790  0.71361992    -0.28800
C255        C  0.11125686  0.77610405  0.67605919     0.06700
C256        C  0.05360951  0.78830258  0.67050653    -0.27500
H257        H  0.15500724  0.74738889  0.78808738     0.11400
H258        H  0.08819583  0.75005475  0.84350150     0.12600
H259        H  0.94113108  0.80821887  0.66760745     0.11700
H260        H  0.87341207  0.80872666  0.72269354     0.10900
H261        H  0.85357617  0.79889405  0.79303446     0.16300
H262        H  0.99192512  0.76348185  0.86971207     0.12200
H263        H  0.17428631  0.75593222  0.71814481     0.15100
H264        H  0.03875593  0.79640577  0.64154864     0.14800
C265        C  0.08586600  0.78452975  0.22655027    -0.18100
C266        C  0.04801773  0.78317794  0.19452987    -0.20200
C267        C  0.98803757  0.78142905  0.20034204     0.20400
C268        C  0.96596622  0.78119329  0.23877702    -0.03100
C269        C  0.00406374  0.78328885  0.27101992    -0.06200
C270        C  0.06436366  0.78462433  0.26492611     0.20700
C271        C  0.98173249  0.78380421  0.30935166     0.18900
C272        C  0.92184427  0.78192437  0.31522889    -0.17700
C273        C  0.88419452  0.77916274  0.28333798    -0.19900
C274        C  0.90578707  0.77870577  0.24505494     0.20400
C275        C  0.86821177  0.77580322  0.21297501    -0.32900
C276        C  0.88979522  0.77659951  0.17468675     0.01100
C277        C  0.94968102  0.77974422  0.16848940    -0.24300
C278        C  0.10193833  0.78579179  0.29731322    -0.28800
C279        C  0.07978596  0.78639209  0.33562831     0.06700
C280        C  0.01958928  0.78577238  0.34124625    -0.27500
H281        H  0.13197762  0.78557812  0.22128990     0.11400
H282        H  0.06568184  0.78325923  0.16520748     0.12600
H283        H  0.90412444  0.78226918  0.34453931     0.11700
H284        H  0.83813711  0.77744357  0.28862338     0.10900
H285        H  0.82202949  0.77365107  0.21773182     0.16300
H286        H  0.96638678  0.78005366  0.13888324     0.12200
H287        H  0.14824902  0.78637081  0.29271778     0.15100
H288        H  0.00201285  0.78588248  0.37061728     0.14800
C289        C  0.57693526  0.71779277  0.68168141    -0.18100
C290        C  0.61446622  0.72085349  0.71361039    -0.20200
C291        C  0.59261688  0.72311057  0.75177958     0.20400
C292        C  0.53229947  0.72247465  0.75790362    -0.03100
C293        C  0.49437443  0.72006412  0.72560596    -0.06200
C294        C  0.51694362  0.71742259  0.68739948     0.20700
C295        C  0.43401362  0.72030686  0.73153047     0.18900
C296        C  0.41222129  0.72265943  0.76977510    -0.17700
C297        C  0.44986052  0.72434458  0.80187958    -0.19900
C298        C  0.50993186  0.72414049  0.79625288     0.20400
C299        C  0.54811226  0.72546515  0.82820762    -0.32900
C300        C  0.60815874  0.72634594  0.82212810     0.01100
C301        C  0.63007692  0.72572492  0.78392073    -0.24300
C302        C  0.47922635  0.71472205  0.65547272    -0.28800
C303        C  0.41898857  0.71538033  0.66093333     0.06700
C304        C  0.39664705  0.71829385  0.69910903    -0.27500
H305        H  0.59484414  0.71587916  0.65247012     0.11400
H306        H  0.66063150  0.72121353  0.70845914     0.12600
H307        H  0.36603924  0.72296030  0.77487765     0.11700
H308        H  0.43198215  0.72584811  0.83111749     0.10900
H309        H  0.53124365  0.72644271  0.85776844     0.16300
H310        H  0.67640211  0.72632909  0.77931038     0.12200
H311        H  0.49697747  0.71290808  0.62619173     0.15100
H312        H  0.35030634  0.71884568  0.70359492     0.14800
C313        C  0.39598353  0.75975137  0.21747477    -0.18100
C314        C  0.43416088  0.75860505  0.18586831    -0.20200
C315        C  0.48810637  0.73998649  0.18944516     0.20400
C316        C  0.50409280  0.72261913  0.22526241    -0.03100
C317        C  0.46515237  0.72323681  0.25697660    -0.06200
C318        C  0.41090941  0.74196634  0.25304174     0.20700
C319        C  0.48043952  0.70505956  0.29252613     0.18900
C320        C  0.53476810  0.68690839  0.29622136    -0.17700
C321        C  0.57371005  0.68676593  0.26494558    -0.19900
C322        C  0.55879428  0.70444059  0.22930819     0.20400
C323        C  0.59719873  0.70390975  0.19750100    -0.32900
C324        C  0.58055879  0.72014081  0.16150613     0.01100
C325        C  0.52613398  0.73815397  0.15771065    -0.24300
C326        C  0.37254521  0.74264904  0.28471786    -0.28800
C327        C  0.38727515  0.72445385  0.32024802     0.06700
C328        C  0.44127371  0.70551867  0.32380060    -0.27500
H329        H  0.35458357  0.77433037  0.21401002     0.11400
H330        H  0.42145740  0.77224527  0.15858822     0.12600
H331        H  0.54721007  0.67288220  0.32335878     0.11700
H332        H  0.61537557  0.67258888  0.26855494     0.10900
H333        H  0.63915381  0.68989787  0.20030695     0.16300
H334        H  0.51362892  0.75102591  0.12998219     0.12200
H335        H  0.33110774  0.75730056  0.28163288     0.15100
H336        H  0.45331144  0.69169349  0.35114081     0.14800
C337        C  0.95083188  0.21729209  0.80544009    -0.18100
C338        C  0.91305714  0.21583763  0.77338152    -0.20200
C339        C  0.93467162  0.21467889  0.73504328     0.20400
C340        C  0.99502064  0.21504148  0.72902478    -0.03100
C341        C  0.03307754  0.21723462  0.76130067    -0.06200
C342        C  0.01087703  0.21807410  0.79970560     0.20700
C343        C  0.09334238  0.21876144  0.75508532     0.18900
C344        C  0.11503567  0.21724491  0.71684033    -0.17700
C345        C  0.07740698  0.21439137  0.68493228    -0.19900
C346        C  0.01744177  0.21347694  0.69073563     0.20400
C347        C  0.97960608  0.21147554  0.65880851    -0.32900
C348        C  0.91935900  0.21184962  0.66433876     0.01100
C349        C  0.89715280  0.21344111  0.70262249    -0.24300
C350        C  0.04916764  0.21985931  0.83160537    -0.28800
C351        C  0.10915937  0.22206397  0.82546686     0.06700
C352        C  0.13088956  0.22179617  0.78718868    -0.27500
H353        H  0.93306309  0.21805077  0.83473028     0.11400
H354        H  0.86690389  0.21555494  0.77858623     0.12600
H355        H  0.16115482  0.21821668  0.71159810     0.11700
H356        H  0.09521381  0.21323309  0.65565953     0.10900
H357        H  0.99727462  0.21058440  0.62947022     0.16300
H358        H  0.85082304  0.21364553  0.70717568     0.12200
H359        H  0.03235270  0.22038495  0.86118641     0.15100
H360        H  0.17714396  0.22324066  0.78247453     0.14800
C361        C  0.92969289  0.24516506  0.18659038    -0.18100
C362        C  0.89157244  0.24655828  0.21817336    -0.20200
C363        C  0.91005066  0.23531200  0.25556898     0.20400
C364        C  0.96764942  0.22273420  0.26130624    -0.03100
C365        C  0.00643578  0.22193029  0.22951536    -0.06200
C366        C  0.98704470  0.23286363  0.19198603     0.20700
C367        C  0.06443122  0.21011086  0.23522959     0.18900
C368        C  0.08279490  0.19882154  0.27269716    -0.17700
C369        C  0.04406909  0.19905681  0.30413642    -0.19900
C370        C  0.98644212  0.21097127  0.29874061     0.20400
C371        C  0.94732746  0.21155844  0.33009059    -0.32900
C372        C  0.89004234  0.22458690  0.32461957     0.01100
C373        C  0.87188298  0.23651191  0.28729029    -0.24300
C374        C  0.02519405  0.23115371  0.16038599    -0.28800
C375        C  0.08294959  0.21945924  0.16570780     0.06700
C376        C  0.10269691  0.20951489  0.20329833    -0.27500
H377        H  0.91431946  0.25375679  0.15791785     0.11400
H378        H  0.84751505  0.25626488  0.21330642     0.12600
H379        H  0.12704486  0.18958531  0.27764970     0.11700
H380        H  0.05925073  0.19003346  0.33271925     0.10900
H381        H  0.96178820  0.20267864  0.35891051     0.16300
H382        H  0.82779709  0.24643345  0.28284723     0.12200
H383        H  0.01003451  0.23934445  0.13150955     0.15100
H384        H  0.14721473  0.20041084  0.20743385     0.14800
C385        C  0.60813720  0.24690945  0.78456888    -0.18100
C386        C  0.57004026  0.24824555  0.81621635    -0.20200
C387        C  0.51387628  0.26317367  0.81149497     0.20400
C388        C  0.49569748  0.27679001  0.77456656    -0.03100
C389        C  0.53449412  0.27604497  0.74277632    -0.06200
C390        C  0.59088014  0.26086335  0.74779894     0.20700
C391        C  0.51687922  0.29050052  0.70603553     0.18900
C392        C  0.46047853  0.30507780  0.70127782    -0.17700
C393        C  0.42172885  0.30528139  0.73265816    -0.19900
C394        C  0.43887368  0.29126587  0.76943910     0.20400
C395        C  0.40050306  0.29174986  0.80126426    -0.32900
C396        C  0.41905481  0.27912005  0.83826889     0.01100
C397        C  0.47569122  0.26489390  0.84313376    -0.24300
C398        C  0.62901380  0.25986833  0.71598957    -0.28800
C399        C  0.61195409  0.27448309  0.67931869     0.06700
C400        C  0.55586204  0.28996182  0.67466701    -0.27500
H401        H  0.65123929  0.23515422  0.78891116     0.11400
H402        H  0.58449190  0.23755834  0.84439848     0.12600
H403        H  0.44625869  0.31622085  0.67322290     0.11700
H404        H  0.37841215  0.31660843  0.72820277     0.10900
H405        H  0.35689582  0.30289317  0.79757378     0.16300
H406        H  0.48983834  0.25476616  0.87162663     0.12200
H407        H  0.67215283  0.24796124  0.71986856     0.15100
H408        H  0.54213025  0.30092961  0.64641255     0.14800
C409        C  0.58874501  0.28155641  0.22951511    -0.18100
C410        C  0.55092127  0.27994357  0.19749135    -0.20200
C411        C  0.49089475  0.27910256  0.20328399     0.20400
C412        C  0.46877429  0.27968818  0.24171629    -0.03100
C413        C  0.50686029  0.28203576  0.27394636    -0.06200
C414        C  0.56718363  0.28280043  0.26786668     0.20700
C415        C  0.48448056  0.28356675  0.31224784     0.18900
C416        C  0.42456435  0.28214679  0.31813015    -0.17700
C417        C  0.38691114  0.27913694  0.28626489    -0.19900
C418        C  0.40854038  0.27798347  0.24799903     0.20400
C419        C  0.37093201  0.27534960  0.21592969    -0.32900
C420        C  0.39255537  0.27570493  0.17763865     0.01100
C421        C  0.45252373  0.27771628  0.17141906    -0.24300
C422        C  0.60471928  0.28466669  0.30024460    -0.28800
C423        C  0.58251690  0.28650130  0.33852098     0.06700
C424        C  0.52230589  0.28619513  0.34411274    -0.27500
H425        H  0.63488250  0.28204792  0.22427025     0.11400
H426        H  0.56862883  0.27928112  0.16818199     0.12600
H427        H  0.40681288  0.28318502  0.34742192     0.11700
H428        H  0.34081430  0.27793375  0.29154778     0.10900
H429        H  0.32468655  0.27387640  0.22068683     0.16300
H430        H  0.46922639  0.27748981  0.14180727     0.12200
H431        H  0.65104100  0.28485265  0.29566331     0.15100
H432        H  0.50467373  0.28712985  0.37346047     0.14800
C433        C  0.02140896  0.02206818  0.07043812    -0.18100
C434        C  0.99836600  0.98404110  0.07316278    -0.20200
C435        C  0.98119396  0.96338166  0.03935054     0.20400
C436        C  0.98745032  0.98115169  0.00239761    -0.03100
C437        C  0.01052220  0.01956897  0.99965705    -0.06200
C438        C  0.02759050  0.04009792  0.03384818     0.20700
C439        C  0.01678850  0.03730673  0.96269135     0.18900
C440        C  0.99950663  0.01669452  0.92888947    -0.17700
C441        C  0.97654347  0.97866835  0.93160849    -0.19900
C442        C  0.97050769  0.96061392  0.96818469     0.20400
C443        C  0.94711660  0.92260560  0.97114984    -0.32900
C444        C  0.93962334  0.90497932  0.00793597     0.01100
C445        C  0.95722650  0.92549006  0.04188176    -0.24300
C446        C  0.05135154  0.07802439  0.03080813    -0.28800
C447        C  0.05900281  0.09553693  0.99396162     0.06700
C448        C  0.04100800  0.07508825  0.96009378    -0.27500
H449        H  0.03446840  0.03736374  0.09695960     0.11400
H450        H  0.99389042  0.97080112  0.10175898     0.12600
H451        H  0.00395602  0.02993809  0.90029323     0.11700
H452        H  0.96351283  0.96336657  0.90508404     0.10900
H453        H  0.93319383  0.90723205  0.94485144     0.16300
H454        H  0.95165218  0.91215848  0.07036151     0.12200
H455        H  0.06547835  0.09338703  0.05706196     0.15100
H456        H  0.04659505  0.08834991  0.93158251     0.14800
C457        C  0.52202054  0.50776334  0.92706453    -0.18100
C458        C  0.49887170  0.46986956  0.93105862    -0.20200
C459        C  0.48219653  0.45603618  0.96795203     0.20400
C460        C  0.48895000  0.48064210  0.00114458    -0.03100
C461        C  0.51214429  0.51894126  0.99709258    -0.06200
C462        C  0.52880175  0.53253169  0.95987455     0.20700
C463        C  0.51876292  0.54355004  0.03029237     0.18900
C464        C  0.50223641  0.52969403  0.06719396    -0.17700
C465        C  0.47917582  0.49180676  0.07119342    -0.19900
C466        C  0.47228539  0.46709211  0.03837369     0.20400
C467        C  0.44835943  0.42928731  0.04210564    -0.32900
C468        C  0.44058797  0.40470356  0.00909321     0.01100
C469        C  0.45823933  0.41825235  0.97213696    -0.24300
C470        C  0.55247023  0.57045954  0.95617478    -0.28800
C471        C  0.55983860  0.59509871  0.98921996     0.06700
C472        C  0.54233510  0.58141362  0.02613701    -0.27500
H473        H  0.53464228  0.51770335  0.89826906     0.11400
H474        H  0.49392766  0.45139228  0.90525652     0.12600
H475        H  0.50715116  0.54817469  0.09299589     0.11700
H476        H  0.46658461  0.48186143  0.09999336     0.10900
H477        H  0.43487207  0.41930980  0.07071970     0.16300
H478        H  0.45226837  0.39974558  0.94643799     0.12200
H479        H  0.56595507  0.58052003  0.92759009     0.15100
H480        H  0.54806620  0.59991681  0.05186347     0.14800
loop_ 
_geom_bond_atom_site_label_1 
_geom_bond_atom_site_label_2 
_geom_bond_distance 
_geom_bond_site_symmetry_2 
_ccdc_geom_bond_type 
O1           Mg3   2.125   1_554  S
O1           Mg9   2.131       .  S
O1           C36   1.237       .  S
C2           O15   1.237       .  S
C2           O39   1.271       .  A
C2           H41   1.081       .  S
Mg3          O32   2.148       .  S
Mg3          O47   2.308       .  S
Mg3          O43   2.237       .  S
Mg3          O14   2.297       .  S
O4          Mg46   2.144       .  S
O4          Mg29   2.137       .  S
O4           C25   1.239       .  S
O5           C36   1.271       .  A
O5          Mg29   2.301       .  S
C6            O8   1.274       .  A
C6           O20   1.275       .  A
C6          C351   1.474       .  S
O7           C35   1.273   1_554  A
O7           Mg9   2.305       .  S
O8          Mg40   2.274       .  S
Mg9          O15   2.131       .  S
Mg9          O23   2.266       .  S
Mg9          O11   2.309       .  S
C10          O48   1.272       .  A
C10          O16   1.275   1_556  A
C10         C447   1.481       .  S
O11          C18   1.276       .  A
H12          C25   1.081       .  S
C13          O27   1.237       .  S
C13          O28   1.271       .  A
C13          H38   1.081       .  S
O14          C37   1.271       .  A
O15         Mg29   2.144       .  S
O16         Mg46   2.304       .  S
C17          O30   1.271       .  A
C17          O22   1.277       .  A
C17         C375   1.475       .  S
C18          O45   1.274       .  A
C18         C420   1.473       .  S
Mg19         O26   2.133       .  S
Mg19         O27   2.130       .  S
Mg19         O20   2.305       .  S
Mg19         O21   2.304       .  S
Mg19         O48   2.261       .  S
O21          C25   1.273   1_556  A
O22         Mg29   2.324       .  S
O23          C42   1.272       .  A
O24          C44   1.278       .  A
O24         Mg40   2.326       .  S
O26         Mg40   2.144       .  S
O26          C37   1.238       .  S
O27         Mg46   2.129   1_556  S
O28         Mg40   2.304       .  S
Mg29         O45   2.266       .  S
O30         Mg46   2.238       .  S
H31          C36   1.081       .  S
O32         Mg40   2.140       .  S
O32          C35   1.239       .  S
H33          C35   1.081       .  S
H34          C37   1.081       .  S
O39         Mg46   2.294       .  S
C42          O47   1.275   1_554  A
C42         C468   1.486       .  S
O43          C44   1.270       .  A
C44         C396   1.473       .  S
O49         Mg51   2.126   1_554  S
O49         Mg57   2.131       .  S
O49          C84   1.237       .  S
C50          O63   1.238       .  S
C50          O87   1.271       .  A
C50          H89   1.081       .  S
Mg51         O80   2.143       .  S
Mg51         O95   2.304       .  S
Mg51         O91   2.240       .  S
Mg51         O62   2.295       .  S
O52         Mg94   2.148       .  S
O52         Mg77   2.139       .  S
O52          C73   1.239       .  S
O53          C84   1.271       .  A
O53         Mg77   2.302       .  S
C54          O56   1.273       .  A
C54          O68   1.275       .  A
C54         C300   1.471       .  S
O55          C83   1.273   1_554  A
O55         Mg57   2.303       .  S
O56         Mg88   2.265       .  S
Mg57         O63   2.133       .  S
Mg57         O71   2.260       .  S
Mg57         O59   2.300       .  S
C58          O96   1.272       .  A
C58          O64   1.276   1_556  A
C58         C471   1.486       .  S
O59          C66   1.274       .  A
H60          C73   1.081       .  S
C61          O75   1.238       .  S
C61          O76   1.272       .  A
C61          H86   1.081       .  S
O62          C85   1.271       .  A
O63         Mg77   2.145       .  S
O64         Mg94   2.309       .  S
C65          O78   1.271       .  A
C65          O70   1.277       .  A
C65         C324   1.472       .  S
C66          O93   1.274       .  A
C66         C276   1.473       .  S
Mg67         O74   2.132       .  S
Mg67         O75   2.132       .  S
Mg67         O68   2.308       .  S
Mg67         O69   2.304       .  S
Mg67         O96   2.268       .  S
O69          C73   1.273   1_556  A
O70         Mg77   2.323       .  S
O71          C90   1.271       .  A
O72          C92   1.278       .  A
O72         Mg88   2.329       .  S
O74         Mg88   2.142       .  S
O74          C85   1.237       .  S
O75         Mg94   2.126   1_556  S
O76         Mg88   2.303       .  S
Mg77         O93   2.273       .  S
O78         Mg94   2.244       .  S
H79          C84   1.081       .  S
O80         Mg88   2.134       .  S
O80          C83   1.239       .  S
H81          C83   1.081       .  S
H82          C85   1.081       .  S
O87         Mg94   2.296       .  S
C90          O95   1.275   1_554  A
C90         C444   1.481       .  S
O91          C92   1.271       .  A
C92         C252   1.477       .  S
O97         Mg99   2.128       .  S
O97        Mg105   2.141       .  S
O97         C132   1.237       .  S
C98         O111   1.237       .  S
C98         O135   1.270       .  A
C98         H137   1.081       .  S
Mg99        O128   2.147       .  S
Mg99        O143   2.292       .  S
Mg99        O139   2.244       .  S
Mg99        O110   2.295       .  S
O100       Mg142   2.144       .  S
O100       Mg125   2.137       .  S
O100        C121   1.239       .  S
O101        C132   1.271       .  A
O101       Mg125   2.299       .  S
C102        O104   1.274       .  A
C102        O116   1.277       .  A
C102        C399   1.481       .  S
O103        C131   1.273       .  A
O103       Mg105   2.301       .  S
O104       Mg136   2.268       .  S
Mg105       O111   2.117       .  S
Mg105       O119   2.244       .  S
Mg105       O107   2.304       .  S
C106        O144   1.273       .  A
C106        O112   1.272       .  A
C106        C228   1.478       .  S
O107        C114   1.275       .  A
H108        C121   1.081       .  S
C109        O123   1.237       .  S
C109        O124   1.271       .  A
C109        H134   1.081       .  S
O110        C133   1.270       .  A
O111       Mg125   2.140       .  S
O112       Mg142   2.282       .  S
C113        O126   1.271       .  A
C113        O118   1.277       .  A
C113        C423   1.481       .  S
C114        O141   1.274       .  A
C114        C372   1.479       .  S
Mg115       O122   2.132       .  S
Mg115       O123   2.138       .  S
Mg115       O116   2.310       .  S
Mg115       O117   2.305       .  S
Mg115       O144   2.275       .  S
O117        C121   1.273       .  A
O118       Mg125   2.319       .  S
O119        C138   1.270       .  A
O120        C140   1.278       .  A
O120       Mg136   2.325       .  S
O122       Mg136   2.145       .  S
O122        C133   1.237       .  S
O123       Mg142   2.132       .  S
O124       Mg136   2.302       .  S
Mg125       O141   2.269       .  S
O126       Mg142   2.244       .  S
H127        C132   1.081       .  S
O128       Mg136   2.138       .  S
O128        C131   1.239       .  S
H129        C131   1.081       .  S
H130        C133   1.081       .  S
O135       Mg142   2.289       .  S
C138        O143   1.274       .  A
C138        C207   1.473       .  S
O139        C140   1.271       .  A
C140        C348   1.482       .  S
O145       Mg147   2.130       .  S
O145       Mg153   2.138       .  S
O145        C180   1.237       .  S
C146        O159   1.237       .  S
C146        O183   1.270       .  A
C146        H185   1.081       .  S
Mg147       O176   2.145       .  S
Mg147       O191   2.284       .  S
Mg147       O187   2.244       .  S
Mg147       O158   2.291       .  S
O148       Mg190   2.148       .  S
O148       Mg173   2.139       .  S
O148        C169   1.239       .  S
O149        C180   1.270       .  A
O149       Mg173   2.299       .  S
C150        O152   1.275       .  A
C150        O164   1.276       .  A
C150        C255   1.481       .  S
O151        C179   1.273       .  A
O151       Mg153   2.305       .  S
O152       Mg184   2.275       .  S
Mg153       O159   2.131       .  S
Mg153       O167   2.273       .  S
Mg153       O155   2.307       .  S
C154        O192   1.270       .  A
C154        O160   1.273       .  A
C154        C204   1.473       .  S
O155        C162   1.277       .  A
H156        C169   1.081       .  S
C157        O171   1.237       .  S
C157        O172   1.271       .  A
C157        H182   1.081       .  S
O158        C181   1.270       .  A
O159       Mg173   2.147       .  S
O160       Mg190   2.292       .  S
C161        O174   1.271       .  A
C161        O166   1.277       .  A
C161        C279   1.481       .  S
C162        O189   1.275       .  A
C162        C327   1.482       .  S
Mg163       O170   2.117       .  S
Mg163       O171   2.141       .  S
Mg163       O164   2.308       .  S
Mg163       O165   2.302       .  S
Mg163       O192   2.244       .  S
O165        C169   1.273       .  A
O166       Mg173   2.322       .  S
O167        C186   1.272       .  A
O168        C188   1.276       .  A
O168       Mg184   2.315       .  S
O170       Mg184   2.140       .  S
O170        C181   1.237       .  S
O171       Mg190   2.130       .  S
O172       Mg184   2.300       .  S
Mg173       O189   2.268       .  S
O174       Mg190   2.244       .  S
H175        C180   1.081       .  S
O176       Mg184   2.139       .  S
O176        C179   1.239       .  S
H177        C179   1.081       .  S
H178        C181   1.081       .  S
O183       Mg190   2.294       .  S
C186        O191   1.273       .  A
C186        C231   1.477       .  S
O187        C188   1.271       .  A
C188        C303   1.481       .  S
C193        H209   1.083       .  S
C193        C194   1.397       .  A
C193        C198   1.402       .  A
C194        H210   1.084   1_545  S
C194        C195   1.403   1_545  A
C195        C205   1.399       .  A
C195        C196   1.411       .  A
C196        C202   1.412   1_455  A
C196        C197   1.409   1_465  A
C197        C199   1.411       .  A
C197        C198   1.412   1_655  A
C198        C206   1.400   1_455  A
C199        C208   1.400       .  A
C199        C200   1.403   1_545  A
C200        H211   1.084       .  S
C200        C201   1.398       .  A
C201        H212   1.083       .  S
C201        C202   1.403       .  A
C202        C203   1.401   1_655  A
C203        H213   1.084       .  S
C203        C204   1.405       .  A
C204        C205   1.406       .  A
C205        H214   1.084       .  S
C206        H215   1.084       .  S
C206        C207   1.404       .  A
C207        C208   1.406       .  A
C208        H216   1.084       .  S
C217        H233   1.084       .  S
C217        C218   1.398       .  A
C217        C222   1.403       .  A
C218        H234   1.083       .  S
C218        C219   1.403       .  A
C219        C229   1.403       .  A
C219        C220   1.413       .  A
C220        C226   1.410       .  A
C220        C221   1.411       .  A
C221        C223   1.413       .  A
C221        C222   1.410       .  A
C222        C230   1.400       .  A
C223        C232   1.404       .  A
C223        C224   1.403       .  A
C224        H235   1.084       .  S
C224        C225   1.398       .  A
C225        H236   1.084       .  S
C225        C226   1.404       .  A
C226        C227   1.400       .  A
C227        H237   1.084       .  S
C227        C228   1.408       .  A
C228        C229   1.405       .  A
C229        H238   1.084       .  S
C230        H239   1.084       .  S
C230        C231   1.407       .  A
C231        C232   1.406       .  A
C232        H240   1.084       .  S
C241        H257   1.084       .  S
C241        C242   1.397       .  A
C241        C246   1.403       .  A
C242        H258   1.083       .  S
C242        C243   1.403       .  A
C243        C253   1.399   1_455  A
C243        C244   1.410   1_455  A
C244        C250   1.414       .  A
C244        C245   1.412   1_655  A
C245        C247   1.410       .  A
C245        C246   1.413       .  A
C246        C254   1.402       .  A
C247        C256   1.404       .  A
C247        C248   1.405   1_455  A
C248        H259   1.083       .  S
C248        C249   1.401       .  A
C249        H260   1.084       .  S
C249        C250   1.404       .  A
C250        C251   1.407       .  A
C251        H261   1.084       .  S
C251        C252   1.406       .  A
C252        C253   1.406       .  A
C253        H262   1.084       .  S
C254        H263   1.084       .  S
C254        C255   1.405       .  A
C255        C256   1.409       .  A
C256        H264   1.084       .  S
C265        H281   1.084       .  S
C265        C266   1.401       .  A
C265        C270   1.404       .  A
C266        H282   1.083       .  S
C266        C267   1.405   1_455  A
C267        C277   1.404       .  A
C267        C268   1.411       .  A
C268        C274   1.413       .  A
C268        C269   1.411   1_655  A
C269        C271   1.410   1_455  A
C269        C270   1.413       .  A
C270        C278   1.407       .  A
C271        C280   1.398   1_655  A
C271        C272   1.403       .  A
C272        H283   1.083       .  S
C272        C273   1.397       .  A
C273        H284   1.084       .  S
C273        C274   1.402       .  A
C274        C275   1.401       .  A
C275        H285   1.085       .  S
C275        C276   1.402       .  A
C276        C277   1.407       .  A
C277        H286   1.084       .  S
C278        H287   1.084       .  S
C278        C279   1.408       .  A
C279        C280   1.407       .  A
C280        H288   1.084       .  S
C289        H305   1.083       .  S
C289        C290   1.397       .  A
C289        C294   1.403       .  A
C290        H306   1.084       .  S
C290        C291   1.402       .  A
C291        C301   1.400       .  A
C291        C292   1.413       .  A
C292        C298   1.411       .  A
C292        C293   1.411       .  A
C293        C295   1.412       .  A
C293        C294   1.410       .  A
C294        C302   1.398       .  A
C295        C304   1.405       .  A
C295        C296   1.404       .  A
C296        H307   1.084       .  S
C296        C297   1.400       .  A
C297        H308   1.083       .  S
C297        C298   1.404       .  A
C298        C299   1.404       .  A
C299        H309   1.084       .  S
C299        C300   1.406       .  A
C300        C301   1.402       .  A
C301        H310   1.085       .  S
C302        H311   1.084       .  S
C302        C303   1.407       .  A
C303        C304   1.407       .  A
C304        H312   1.084       .  S
C313        H329   1.084       .  S
C313        C314   1.398       .  A
C313        C318   1.403       .  A
C314        H330   1.083       .  S
C314        C315   1.403       .  A
C315        C325   1.400       .  A
C315        C316   1.410       .  A
C316        C322   1.414       .  A
C316        C317   1.412       .  A
C317        C319   1.410       .  A
C317        C318   1.412       .  A
C318        C326   1.402       .  A
C319        C328   1.403       .  A
C319        C320   1.404       .  A
C320        H331   1.083       .  S
C320        C321   1.400       .  A
C321        H332   1.084       .  S
C321        C322   1.403       .  A
C322        C323   1.406       .  A
C323        H333   1.084       .  S
C323        C324   1.404       .  A
C324        C325   1.405       .  A
C325        H334   1.085       .  S
C326        H335   1.084       .  S
C326        C327   1.407       .  A
C327        C328   1.409       .  A
C328        H336   1.084       .  S
C337        H353   1.083       .  S
C337        C338   1.401       .  A
C337        C342   1.405   1_655  A
C338        H354   1.084       .  S
C338        C339   1.404       .  A
C339        C349   1.407       .  A
C339        C340   1.413       .  A
C340        C346   1.410   1_655  A
C340        C341   1.412   1_655  A
C341        C343   1.413       .  A
C341        C342   1.411       .  A
C342        C350   1.404       .  A
C343        C352   1.401       .  A
C343        C344   1.402       .  A
C344        H355   1.084       .  S
C344        C345   1.397       .  A
C345        H356   1.083       .  S
C345        C346   1.403       .  A
C346        C347   1.399   1_455  A
C347        H357   1.084       .  S
C347        C348   1.408       .  A
C348        C349   1.408       .  A
C349        H358   1.084       .  S
C350        H359   1.084       .  S
C350        C351   1.407       .  A
C351        C352   1.403       .  A
C352        H360   1.085       .  S
C361        H377   1.083       .  S
C361        C362   1.396       .  A
C361        C366   1.403       .  A
C362        H378   1.084       .  S
C362        C363   1.402       .  A
C363        C373   1.401       .  A
C363        C364   1.412       .  A
C364        C370   1.410       .  A
C364        C365   1.411   1_655  A
C365        C367   1.414       .  A
C365        C366   1.410   1_455  A
C366        C374   1.398   1_655  A
C367        C376   1.407       .  A
C367        C368   1.404       .  A
C368        H379   1.084       .  S
C368        C369   1.401       .  A
C369        H380   1.083       .  S
C369        C370   1.405   1_455  A
C370        C371   1.405       .  A
C371        H381   1.084       .  S
C371        C372   1.409       .  A
C372        C373   1.404       .  A
C373        H382   1.084       .  S
C374        H383   1.085       .  S
C374        C375   1.405       .  A
C375        C376   1.406       .  A
C376        H384   1.084       .  S
C385        H401   1.084       .  S
C385        C386   1.398       .  A
C385        C390   1.403       .  A
C386        H402   1.083       .  S
C386        C387   1.403       .  A
C387        C397   1.399       .  A
C387        C388   1.410       .  A
C388        C394   1.414       .  A
C388        C389   1.411       .  A
C389        C391   1.410       .  A
C389        C390   1.412       .  A
C390        C398   1.402       .  A
C391        C400   1.403       .  A
C391        C392   1.404       .  A
C392        H403   1.083       .  S
C392        C393   1.400       .  A
C393        H404   1.084       .  S
C393        C394   1.403       .  A
C394        C395   1.406       .  A
C395        H405   1.084       .  S
C395        C396   1.404       .  A
C396        C397   1.406       .  A
C397        H406   1.085       .  S
C398        H407   1.084       .  S
C398        C399   1.406       .  A
C399        C400   1.408       .  A
C400        H408   1.084       .  S
C409        H425   1.084       .  S
C409        C410   1.401       .  A
C409        C414   1.404       .  A
C410        H426   1.083       .  S
C410        C411   1.405       .  A
C411        C421   1.404       .  A
C411        C412   1.411       .  A
C412        C418   1.413       .  A
C412        C413   1.411       .  A
C413        C415   1.410       .  A
C413        C414   1.413       .  A
C414        C422   1.406       .  A
C415        C424   1.398       .  A
C415        C416   1.403       .  A
C416        H427   1.083       .  S
C416        C417   1.397       .  A
C417        H428   1.084       .  S
C417        C418   1.402       .  A
C418        C419   1.401       .  A
C419        H429   1.085       .  S
C419        C420   1.403       .  A
C420        C421   1.407       .  A
C421        H430   1.084       .  S
C422        H431   1.084       .  S
C422        C423   1.408       .  A
C423        C424   1.407       .  A
C424        H432   1.084       .  S
C433        H449   1.083       .  S
C433        C434   1.399   1_445  A
C433        C438   1.404       .  A
C434        H450   1.084       .  S
C434        C435   1.403       .  A
C435        C445   1.403       .  A
C435        C436   1.411       .  A
C436        C442   1.411   1_554  A
C436        C437   1.411   1_664  A
C437        C439   1.411       .  A
C437        C438   1.411   1_556  A
C438        C446   1.403       .  A
C439        C448   1.402       .  A
C439        C440   1.403   1_455  A
C440        H451   1.084   1_655  S
C440        C441   1.398   1_545  A
C441        H452   1.083       .  S
C441        C442   1.403       .  A
C442        C443   1.402       .  A
C443        H453   1.084       .  S
C443        C444   1.407   1_556  A
C444        C445   1.408       .  A
C445        H454   1.084       .  S
C446        H455   1.084       .  S
C446        C447   1.408   1_554  A
C447        C448   1.407       .  A
C448        H456   1.084       .  S
C457        H473   1.084       .  S
C457        C458   1.400       .  A
C457        C462   1.404       .  A
C458        H474   1.083       .  S
C458        C459   1.404       .  A
C459        C469   1.404       .  A
C459        C460   1.411   1_556  A
C460        C466   1.411       .  A
C460        C461   1.413   1_554  A
C461        C463   1.411   1_556  A
C461        C462   1.411       .  A
C462        C470   1.404       .  A
C463        C472   1.403       .  A
C463        C464   1.403       .  A
C464        H475   1.083       .  S
C464        C465   1.399       .  A
C465        H476   1.084       .  S
C465        C466   1.403       .  A
C466        C467   1.403       .  A
C467        H477   1.084       .  S
C467        C468   1.409       .  A
C468        C469   1.409   1_554  A
C469        H478   1.084       .  S
C470        H479   1.084       .  S
C470        C471   1.409       .  A
C471        C472   1.408   1_556  A
C472        H480   1.084       .  S
