geometry optimzed in LAMMPS
_audit_creation_date              2020-12-01 
_audit_creation_method            'lammps2cif' 
_symmetry_space_group_name_H-M    'P1' 
_symmetry_Int_Tables_number       1 
_symmetry_cell_setting            triclinic 
loop_ 
_symmetry_equiv_pos_as_xyz 
  x,y,z 
_cell_length_a                    51.2401607 
_cell_length_b                    51.309008073891455 
_cell_length_c                    52.02357247545656 
_cell_angle_alpha                 89.86530417489136 
_cell_angle_beta                  89.97793192306784 
_cell_angle_gamma                 90.0343742483199 
loop_ 
_atom_site_label 
_atom_site_type_symbol 
_atom_site_fract_x 
_atom_site_fract_y 
_atom_site_fract_z 
_atom_site_charge 
O1          O  0.84320152  0.48183888  0.90257641    -0.73800
O2          O  0.87028688  0.53797886  0.86256851    -0.73900
O3          O  0.84352842  0.53401842  0.90735598    -0.73900
O4          O  0.86984029  0.48595917  0.85777509    -0.74000
O5          O  0.83228749  0.48791990  0.83617571    -0.73900
O6          O  0.80636141  0.53680185  0.88508883    -0.73900
O7          O  0.83307794  0.53998125  0.84034299    -0.73900
O8          O  0.80551609  0.48451508  0.88118037    -0.73900
Ni9        Ni  0.85804628  0.50984848  0.88336829     1.25400
Ni10       Ni  0.81792346  0.51235252  0.85997202     1.25400
C11         C  0.81970697  0.47436448  0.89880494     0.88300
C12         C  0.85648918  0.54761808  0.84437319     0.88300
C13         C  0.82055581  0.54326760  0.90427879     0.88300
C14         C  0.85572679  0.47963257  0.83844773     0.88500
O15         O  0.66716473  0.68647289  0.03592851    -0.73800
O16         O  0.70389230  0.65059802  0.08927736    -0.73900
O17         O  0.66602588  0.68731495  0.08802886    -0.73900
O18         O  0.70469696  0.64981813  0.03769827    -0.74000
O19         O  0.73529313  0.68073039  0.03781040    -0.73900
O20         O  0.69610646  0.71885282  0.08765849    -0.73900
O21         O  0.73401921  0.68206141  0.08961378    -0.73900
O22         O  0.69789453  0.71733528  0.03571952    -0.73900
Ni23       Ni  0.68428533  0.66749754  0.06280856     1.25400
Ni24       Ni  0.71687263  0.70091136  0.06278931     1.25400
C25         C  0.67704389  0.70733931  0.02648178     0.88300
C26         C  0.72535991  0.66011797  0.09765964     0.88300
C27         C  0.67461338  0.70927974  0.09595376     0.88300
C28         C  0.72639831  0.65898624  0.02951540     0.88500
O29         O  0.58368533  0.81619237  0.81657640    -0.73800
O30         O  0.52646154  0.78446696  0.85145536    -0.73900
O31         O  0.53123113  0.81812455  0.81135413    -0.73900
O32         O  0.57902930  0.78334176  0.85689092    -0.74000
O33         O  0.57627542  0.81675790  0.88367152    -0.73900
O34         O  0.53024685  0.85192910  0.83830530    -0.73900
O35         O  0.52402735  0.81840444  0.87807488    -0.73900
O36         O  0.58230176  0.84984596  0.84350929    -0.73900
Ni37       Ni  0.55512754  0.79929961  0.83310356     1.25400
Ni38       Ni  0.55314502  0.83539981  0.86186378     1.25400
C39         C  0.59223423  0.83836915  0.82395202     0.88300
C40         C  0.51597776  0.79599842  0.87062739     0.88300
C41         C  0.52339347  0.84107093  0.81731383     0.88300
C42         C  0.58564151  0.79444160  0.87798375     0.88500
O43         O  0.72760412  0.96384548  0.72428619    -0.73800
O44         O  0.75852802  0.01881317  0.68493300    -0.73900
O45         O  0.72507346  0.01661011  0.72472776    -0.73900
O46         O  0.76157924  0.96634253  0.68436096    -0.74000
O47         O  0.72793663  0.96432116  0.65719090    -0.73900
O48         O  0.69191285  0.01562782  0.69700667    -0.73900
O49         O  0.72538634  0.01667381  0.65709571    -0.73900
O50         O  0.69391649  0.96308067  0.69704434    -0.73900
Ni51       Ni  0.74439139  0.99137048  0.70559195     1.25400
Ni52       Ni  0.70858201  0.98980209  0.67612043     1.25400
C53         C  0.70537821  0.95489341  0.71732307     0.88300
C54         C  0.74694425  0.02662579  0.66453468     0.88300
C55         C  0.70272143  0.02480924  0.71728388     0.88300
C56         C  0.75098287  0.95743003  0.66391733     0.88500
O57         O  0.98876350  0.70883034  0.70521439    -0.73800
O58         O  0.03566756  0.67848586  0.75371703    -0.73900
O59         O  0.04022881  0.71297491  0.71462194    -0.73900
O60         O  0.98403580  0.67424762  0.74417222    -0.74000
O61         O  0.99202435  0.64131250  0.71732168    -0.73900
O62         O  0.04740522  0.68048158  0.68704441    -0.73900
O63         O  0.04377083  0.64619285  0.72609561    -0.73900
O64         O  0.99599765  0.67592974  0.67814668    -0.73900
Ni65       Ni  0.01185176  0.69477443  0.73044435     1.25400
Ni66       Ni  0.02003350  0.65975958  0.70121374     1.25400
C67         C  0.98515842  0.69771592  0.68350439     0.88300
C68         C  0.04766799  0.65754502  0.74763009     0.88300
C69         C  0.05277493  0.70319449  0.69568238     0.88300
C70         C  0.97894305  0.65138425  0.73574976     0.88500
O71         O  0.83521816  0.81880409  0.47790341    -0.73800
O72         O  0.86877181  0.78204912  0.53203413    -0.73900
O73         O  0.83484211  0.82232655  0.52965269    -0.73900
O74         O  0.86933453  0.77893920  0.48049807    -0.74000
O75         O  0.90197256  0.80757840  0.47837568    -0.73900
O76         O  0.86862778  0.84982955  0.52896130    -0.73900
O77         O  0.90252789  0.80950514  0.52999273    -0.73900
O78         O  0.86725948  0.84785852  0.47710764    -0.73900
Ni79       Ni  0.85085476  0.79956089  0.50503719     1.25400
Ni80       Ni  0.88629644  0.82972883  0.50345235     1.25400
C81         C  0.84504038  0.83983002  0.46896129     0.88300
C82         C  0.89120682  0.78953764  0.53979088     0.88300
C83         C  0.84623572  0.84306241  0.53753003     0.88300
C84         C  0.89171853  0.78581002  0.47188677     0.88500
O85         O  0.54014936  0.18558175  0.80730838    -0.73800
O86         O  0.59601881  0.21515540  0.84634666    -0.73900
O87         O  0.59238872  0.17877535  0.80877523    -0.73900
O88         O  0.54358658  0.22195466  0.84502453    -0.74000
O89         O  0.53899038  0.19082066  0.87466883    -0.73900
O90         O  0.58710313  0.14773316  0.83846745    -0.73900
O91         O  0.59102135  0.18401046  0.87589976    -0.73900
O92         O  0.53521347  0.15477949  0.83730558    -0.73900
Ni93       Ni  0.56822921  0.20153960  0.82579507     1.25400
Ni94       Ni  0.56295012  0.16827387  0.85763578     1.25400
C95         C  0.52877577  0.16508710  0.81580155     0.88300
C96         C  0.60251970  0.20456438  0.86770924     0.88300
C97         C  0.59726730  0.15590633  0.81747559     0.88300
C98         C  0.53328936  0.21342215  0.86588662     0.88500
O99         O  0.66927840  0.31225336  0.06937416    -0.73800
O100        O  0.70926002  0.35365854  0.02316801    -0.73900
O101        O  0.67854237  0.31140563  0.01860300    -0.73900
O102        O  0.70039750  0.35480417  0.07408165    -0.74000
O103        O  0.73442334  0.32853906  0.08083919    -0.73900
O104        O  0.71339478  0.28592917  0.02446314    -0.73900
O105        O  0.74398491  0.32827506  0.02995869    -0.73900
O106        O  0.70335214  0.28585945  0.07538706    -0.73900
Ni107      Ni  0.68812269  0.33394135  0.04616450     1.25400
Ni108      Ni  0.72501543  0.30620171  0.05300204     1.25400
C109        C  0.67943245  0.29185743  0.07938833     0.88300
C110        C  0.73310483  0.34775108  0.01889534     0.88300
C111        C  0.69251684  0.29176728  0.01228982     0.88300
C112        C  0.72149038  0.34920890  0.08606329     0.88500
O113        O  0.87833390  0.52231000  0.24811690    -0.73800
O114        O  0.82933174  0.47670874  0.21510910    -0.73900
O115        O  0.87333672  0.47037686  0.24271048    -0.73900
O116        O  0.83374695  0.52916311  0.22083714    -0.74000
O117        O  0.85711249  0.53118796  0.18477147    -0.73900
O118        O  0.89720105  0.47222102  0.20700478    -0.73900
O119        O  0.85271056  0.47901823  0.17930513    -0.73900
O120        O  0.90181071  0.52396583  0.21197927    -0.73900
Ni121      Ni  0.85279008  0.49962726  0.23293571     1.25400
Ni122      Ni  0.87795118  0.50169003  0.19441998     1.25400
C123        C  0.89855936  0.52984072  0.23562195     0.88300
C124        C  0.83311112  0.46993484  0.19170448     0.88300
C125        C  0.89237040  0.46213977  0.22907421     0.88300
C126        C  0.83871528  0.53982810  0.19914129     0.88500
O127        O  0.03501114  0.65433102  0.39736403    -0.73800
O128        O  0.09329131  0.61772041  0.36989882    -0.73900
O129        O  0.08700839  0.65684219  0.40443751    -0.73900
O130        O  0.04116931  0.61577795  0.36271381    -0.74000
O131        O  0.04446544  0.64526073  0.33133341    -0.73900
O132        O  0.09019992  0.68613750  0.37290244    -0.73900
O133        O  0.09670607  0.64722769  0.33844644    -0.73900
O134        O  0.03801028  0.68379922  0.36584438    -0.73900
Ni135      Ni  0.06407487  0.63510896  0.38473178     1.25400
Ni136      Ni  0.06752135  0.66665048  0.35100217     1.25400
C137        C  0.02696616  0.67503346  0.38618645     0.88300
C138        C  0.10422634  0.62616647  0.34941352     0.88300
C139        C  0.09580662  0.67852170  0.39569029     0.88300
C140        C  0.03501818  0.62396215  0.34021739     0.88500
O141        O  0.20954787  0.85532033  0.52500540    -0.73800
O142        O  0.17311939  0.82115499  0.57955577    -0.73900
O143        O  0.20549830  0.86287470  0.57606588    -0.73900
O144        O  0.17702932  0.81407331  0.52839969    -0.74000
O145        O  0.21145667  0.78801224  0.53387745    -0.73900
O146        O  0.23926720  0.83626680  0.58290301    -0.73900
O147        O  0.20701772  0.79455575  0.58535881    -0.73900
O148        O  0.24400990  0.82955691  0.53176249    -0.73900
Ni149      Ni  0.19006401  0.83927404  0.55207118     1.25400
Ni150      Ni  0.22665147  0.81112896  0.55872685     1.25400
C151        C  0.23288694  0.84824229  0.51970412     0.88300
C152        C  0.18392385  0.80195428  0.59118463     0.88300
C153        C  0.22723799  0.85774525  0.58704167     0.88300
C154        C  0.18953942  0.79317883  0.52314809     0.88500
O155        O  0.41071769  0.97693334  0.70519952    -0.73800
O156        O  0.37224047  0.03364934  0.67647894    -0.73900
O157        O  0.41504535  0.02943622  0.70584263    -0.73900
O158        O  0.36732365  0.98131334  0.67515557    -0.74000
O159        O  0.34229594  0.98268954  0.71016280    -0.73900
O160        O  0.39025677  0.03031596  0.74113464    -0.73900
O161        O  0.34726035  0.03470848  0.71128847    -0.73900
O162        O  0.38541560  0.97774581  0.73979930    -0.73900
Ni163      Ni  0.39224249  0.00516409  0.68942858     1.25400
Ni164      Ni  0.36548999  0.00637321  0.72688977     1.25400
C165        C  0.40468212  0.96801428  0.72744269     0.88300
C166        C  0.35324849  0.04360591  0.68904946     0.88300
C167        C  0.41015407  0.03810311  0.72834891     0.88300
C168        C  0.34653947  0.97470929  0.68725999     0.88500
O169        O  0.68717935  0.01894429  0.31607503    -0.73800
O170        O  0.73446750  0.97154123  0.34785374    -0.73900
O171        O  0.69081647  0.96647016  0.31927514    -0.73900
O172        O  0.73061217  0.02396653  0.34488322    -0.74000
O173        O  0.70582044  0.02450096  0.38016095    -0.73900
O174        O  0.66693258  0.96655423  0.35513479    -0.73900
O175        O  0.71055878  0.97225009  0.38374351    -0.73900
O176        O  0.66236791  0.01874804  0.35140791    -0.73900
Ni177      Ni  0.71164563  0.99520187  0.33073957     1.25400
Ni178      Ni  0.68556329  0.99551091  0.36889898     1.25400
C179        C  0.66707848  0.02660572  0.32850506     0.88300
C180        C  0.73032675  0.96416174  0.37099053     0.88300
C181        C  0.67216748  0.95720597  0.33294876     0.88300
C182        C  0.72465282  0.03369419  0.36677463     0.88500
O183        O  0.48342345  0.82537613  0.18613810    -0.73800
O184        O  0.52911451  0.85720247  0.23463438    -0.73900
O185        O  0.53509817  0.82404651  0.19501009    -0.73900
O186        O  0.47748073  0.85887795  0.22599864    -0.74000
O187        O  0.47220905  0.82564910  0.25327646    -0.73900
O188        O  0.52899749  0.78999361  0.22117421    -0.73900
O189        O  0.52427690  0.82320757  0.26111350    -0.73900
O190        O  0.47730776  0.79198573  0.21300218    -0.73900
Ni191      Ni  0.50637414  0.84258186  0.20950055     1.25400
Ni192      Ni  0.50036630  0.80651216  0.23812891     1.25400
C193        C  0.47366461  0.80296568  0.19115740     0.88300
C194        C  0.53452153  0.84528345  0.25559597     0.88300
C195        C  0.54136339  0.80126019  0.20287623     0.88300
C196        C  0.46602981  0.84847102  0.24531556     0.88500
O197        O  0.22470827  0.47012721  0.85189378    -0.73800
O198        O  0.18623926  0.52821117  0.82591402    -0.73900
O199        O  0.23174830  0.52214551  0.85167354    -0.73900
O200        O  0.17964054  0.47617604  0.82574994    -0.74000
O201        O  0.15691050  0.47982310  0.86217676    -0.73900
O202        O  0.21076315  0.52366177  0.88927100    -0.73900
O203        O  0.16536025  0.53164615  0.86343080    -0.73900
O204        O  0.20186162  0.47191591  0.88799729    -0.73900
Ni205      Ni  0.20635550  0.49911705  0.83747732     1.25400
Ni206      Ni  0.18297646  0.50192109  0.87707934     1.25400
C207        C  0.21956932  0.46116381  0.87432628     0.88300
C208        C  0.16911161  0.53910557  0.84025247     0.88300
C209        C  0.23013019  0.52990716  0.87493128     0.88300
C210        C  0.15969652  0.47059408  0.83949783     0.88500
O211        O  0.36689792  0.70645876  0.99119986    -0.73800
O212        O  0.33094910  0.66310925  0.03982047    -0.73900
O213        O  0.36419961  0.70361354  0.04305289    -0.73900
O214        O  0.33335334  0.66576727  0.98804170    -0.74000
O215        O  0.36658038  0.63769822  0.98836952    -0.73900
O216        O  0.39812548  0.67665783  0.04285284    -0.73900
O217        O  0.36470333  0.63560268  0.04007833    -0.73900
O218        O  0.40026389  0.67846646  0.99119777    -0.73900
Ni219      Ni  0.34766192  0.68572991  0.01546342     1.25400
Ni220      Ni  0.38363592  0.65612085  0.01561457     1.25400
C221        C  0.38960796  0.69960852  0.98347913     0.88300
C222        C  0.34198272  0.64224569  0.04787940     0.88300
C223        C  0.38639502  0.69668473  0.05196151     0.88300
C224        C  0.34439562  0.64509823  0.97967587     0.88500
O225        O  0.23267138  0.45657654  0.23321305    -0.73800
O226        O  0.26523996  0.50955561  0.19214210    -0.73900
O227        O  0.23760223  0.50878018  0.23652148    -0.73900
O228        O  0.26061440  0.45701364  0.18887800    -0.74000
O229        O  0.22375320  0.46155074  0.16659743    -0.73900
O230        O  0.20117295  0.51400989  0.21369777    -0.73900
O231        O  0.22897964  0.51372122  0.16932832    -0.73900
O232        O  0.19586268  0.46208582  0.21088323    -0.73900
Ni233      Ni  0.25039033  0.48278489  0.21344168     1.25400
Ni234      Ni  0.21116679  0.48800386  0.18930550     1.25400
C235        C  0.20858255  0.45131811  0.22919478     0.88300
C236        C  0.25260892  0.52042784  0.17375211     0.88300
C237        C  0.21535876  0.51960041  0.23320736     0.88300
C238        C  0.24607743  0.45082105  0.16982255     0.88500
O239        O  0.36596031  0.28207926  0.03252274    -0.73800
O240        O  0.33098956  0.31595919  0.97711018    -0.73900
O241        O  0.37322986  0.28503155  0.98073700    -0.73900
O242        O  0.32372391  0.31339773  0.02853567    -0.74000
O243        O  0.34892210  0.34865912  0.03261657    -0.73900
O244        O  0.39888643  0.31930951  0.98675761    -0.73900
O245        O  0.35654091  0.35046880  0.98158061    -0.73900
O246        O  0.39077995  0.31732530  0.03827679    -0.73900
Ni247      Ni  0.34763101  0.29781701  0.00455135     1.25400
Ni248      Ni  0.37475495  0.33512944  0.00996347     1.25400
C249        C  0.38368948  0.29432682  0.04491108     0.88300
C250        C  0.33759929  0.33894902  0.97020568     0.88300
C251        C  0.39421129  0.29762502  0.97555491     0.88300
C252        C  0.32815141  0.33598144  0.03805435     0.88500
O253        O  0.49061068  0.21204579  0.20536025    -0.73800
O254        O  0.53996932  0.17188754  0.24371175    -0.73900
O255        O  0.54259050  0.20412036  0.20279030    -0.73900
O256        O  0.48787180  0.17938482  0.24652326    -0.74000
O257        O  0.48237877  0.14529261  0.22044411    -0.73900
O258        O  0.53555105  0.17104792  0.17582378    -0.73900
O259        O  0.53424938  0.13865131  0.21669916    -0.73900
O260        O  0.48355196  0.17805338  0.17953373    -0.73900
Ni261      Ni  0.51541901  0.19310152  0.22555220     1.25400
Ni262      Ni  0.50863628  0.15707333  0.19719142     1.25400
C263        C  0.47932566  0.20175608  0.18591974     0.88300
C264        C  0.54537715  0.14872484  0.23634776     0.88300
C265        C  0.54798421  0.19167209  0.18214972     0.88300
C266        C  0.47673886  0.15777927  0.24095723     0.88500
O267        O  0.97009953  0.34138500  0.73614349    -0.73800
O268        O  0.02879884  0.30495311  0.70860415    -0.73900
O269        O  0.02230352  0.34221575  0.74450069    -0.73900
O270        O  0.97661476  0.30404232  0.70018150    -0.74000
O271        O  0.98073256  0.33492275  0.67029550    -0.73900
O272        O  0.02662322  0.37278916  0.71435626    -0.73900
O273        O  0.03275649  0.33547782  0.67818764    -0.73900
O274        O  0.97464415  0.37231656  0.70669743    -0.73900
Ni275      Ni  0.99924965  0.32205893  0.72342662     1.25400
Ni276      Ni  0.00380740  0.35495821  0.69129914     1.25400
C277        C  0.96280209  0.36314550  0.72643311     0.88300
C278        C  0.04039789  0.31428958  0.68883936     0.88300
C279        C  0.03219527  0.36374407  0.73664558     0.88300
C280        C  0.97129197  0.31309070  0.67781989     0.88500
O281        O  0.88008637  0.19211016  0.53627309    -0.73800
O282        O  0.84580048  0.15186588  0.48501220    -0.73900
O283        O  0.87926430  0.19258346  0.48455791    -0.73900
O284        O  0.84642575  0.15187689  0.53676106    -0.74000
O285        O  0.81254890  0.17923793  0.53677410    -0.73900
O286        O  0.84609952  0.22078465  0.48569989    -0.73900
O287        O  0.81253874  0.17998754  0.48479907    -0.73900
O288        O  0.84635225  0.21959476  0.53757033    -0.73900
Ni289      Ni  0.86407550  0.17111201  0.51058543     1.25400
Ni290      Ni  0.82814557  0.20089587  0.51118268     1.25400
C291        C  0.86893106  0.21235656  0.54541264     0.88300
C292        C  0.82352862  0.15915366  0.47662540     0.88300
C293        C  0.86833410  0.21369174  0.47702263     0.88300
C294        C  0.82410943  0.15892356  0.54535042     0.88500
O295        O  0.17177055  0.19476090  0.53787576    -0.73800
O296        O  0.20930128  0.15798905  0.58958639    -0.73900
O297        O  0.17263867  0.19574059  0.58948137    -0.73900
O298        O  0.20843687  0.15702488  0.53775121    -0.74000
O299        O  0.23951409  0.18746556  0.53616781    -0.73900
O300        O  0.20414386  0.22572472  0.58887217    -0.73900
O301        O  0.24102605  0.18753053  0.58780406    -0.73900
O302        O  0.20275976  0.22534459  0.53701111    -0.73900
Ni303      Ni  0.18945100  0.17530076  0.56374797     1.25400
Ni304      Ni  0.22298788  0.20763025  0.56248689     1.25400
C305        C  0.18092499  0.21621978  0.52914377     0.88300
C306        C  0.23174365  0.16615231  0.59670253     0.88300
C307        C  0.18220826  0.21733295  0.59737953     0.88300
C308        C  0.22982971  0.16585427  0.52842077     0.88500
O309        O  0.37095021  0.03975778  0.36807576    -0.73800
O310        O  0.34161748  0.98244507  0.40525754    -0.73900
O311        O  0.37324488  0.98739714  0.36392979    -0.73900
O312        O  0.33950800  0.03484719  0.40950975    -0.74000
O313        O  0.30501860  0.03639716  0.38330518    -0.73900
O314        O  0.33804778  0.98733269  0.33860613    -0.73900
O315        O  0.30644684  0.98383955  0.37997893    -0.73900
O316        O  0.33647482  0.03994766  0.34188549    -0.73900
Ni317      Ni  0.35758519  0.01108771  0.38761527     1.25400
Ni318      Ni  0.32024695  0.01189959  0.36001627     1.25400
C319        C  0.35865418  0.04908397  0.34869616     0.88300
C320        C  0.31902667  0.97396202  0.39888050     0.88300
C321        C  0.36109820  0.97939229  0.34397055     0.88300
C322        C  0.31686638  0.04358447  0.40376672     0.88500
O323        O  0.06517721  0.32844149  0.39493728    -0.73800
O324        O  0.02338774  0.36029119  0.34308284    -0.73900
O325        O  0.01352187  0.33116919  0.38527171    -0.73900
O326        O  0.07496019  0.35774513  0.35264434    -0.74000
O327        O  0.07675244  0.32228708  0.32790699    -0.73900
O328        O  0.01722009  0.29451698  0.36248363    -0.73900
O329        O  0.02496589  0.32385523  0.31978727    -0.73900
O330        O  0.06933042  0.29327709  0.37059263    -0.73900
Ni331      Ni  0.04417856  0.34570108  0.36985472     1.25400
Ni332      Ni  0.04715159  0.30715358  0.34438913     1.25400
C333        C  0.07448922  0.30559351  0.39135076     0.88300
C334        C  0.01736547  0.34739913  0.32289792     0.88300
C335        C  0.00551663  0.30833805  0.37936502     0.88300
C336        C  0.08545337  0.34467063  0.33443072     0.88500
C337        C  0.12406784  0.24815306  0.49485486    -0.04900
C338        C  0.13618672  0.25674722  0.47205465     0.09300
C339        C  0.16310442  0.25273202  0.46820824    -0.02300
C340        C  0.17786231  0.23948011  0.48689990    -0.00500
C341        C  0.16575875  0.23073779  0.50975215    -0.04100
C342        C  0.13888101  0.23542194  0.51384646     0.02900
C343        C  0.12041811  0.26929989  0.45152149     0.09700
C344        C  0.17543521  0.26197793  0.44478525     0.35600
C345        C  0.12656965  0.22766694  0.53782191     0.39000
C346        C  0.11696293  0.29645157  0.45139890    -0.04500
C347        C  0.10251326  0.30844213  0.43161761     0.02700
C348        C  0.09111825  0.29314925  0.41170334    -0.04100
C349        C  0.09537380  0.26567534  0.41185803    -0.00300
C350        C  0.10970268  0.25396580  0.43185550    -0.02900
C351        C  0.12847915  0.31200588  0.47173197     0.36400
C352        C  0.08497678  0.24894381  0.39187121     0.40000
C353        C  0.10027590  0.33666491  0.43183818     0.39100
C354        C  0.11338648  0.22588000  0.43238114     0.36000
C355        C  0.09629363  0.25217074  0.49856604     0.36700
C356        C  0.20516060  0.23381309  0.48202115     0.40000
N357        N  0.09863934  0.35914336  0.43222496    -0.38100
N358        N  0.13769395  0.32433950  0.48798809    -0.39700
N359        N  0.07680796  0.23541143  0.37599316    -0.37400
N360        N  0.11630799  0.20353571  0.43289826    -0.39800
N361        N  0.18514489  0.26945588  0.42608220    -0.39600
N362        N  0.22689556  0.22918866  0.47806227    -0.37200
N363        N  0.11686633  0.22147622  0.55698121    -0.38300
N364        N  0.07412360  0.25528979  0.50148475    -0.39900
C365        C  0.28795399  0.10651701  0.42898309    -0.04900
C366        C  0.28156328  0.09935643  0.45444369     0.09300
C367        C  0.28657063  0.07373713  0.46312104    -0.02300
C368        C  0.29845585  0.05554582  0.44663247    -0.00500
C369        C  0.30433277  0.06257431  0.42103820    -0.04100
C370        C  0.29877123  0.08797376  0.41212969     0.02900
C371        C  0.26894872  0.11848992  0.47212183     0.09700
C372        C  0.27910592  0.06601511  0.48895759     0.35600
C373        C  0.30468409  0.09515776  0.38575457     0.39000
C374        C  0.24235704  0.12486957  0.46896909    -0.04500
C375        C  0.22981528  0.14113663  0.48690405     0.02700
C376        C  0.24362732  0.15058160  0.50847338    -0.04100
C377        C  0.27040476  0.14458842  0.51134748    -0.00300
C378        C  0.28311804  0.12895449  0.49295478    -0.02900
C379        C  0.22777187  0.11420393  0.44752765     0.36400
C380        C  0.28454860  0.15317828  0.53396807     0.40000
C381        C  0.20273990  0.14841449  0.48295073     0.39100
C382        C  0.31071148  0.12321536  0.49564121     0.36000
C383        C  0.28368259  0.13303889  0.42026696     0.36700
C384        C  0.30412052  0.02943564  0.45585058     0.40000
N385        N  0.18117326  0.15429726  0.47979720    -0.38100
N386        N  0.21623005  0.10571011  0.43036081    -0.39700
N387        N  0.29577677  0.15985274  0.55210006    -0.37400
N388        N  0.33271430  0.11860131  0.49773251    -0.39800
N389        N  0.27309304  0.05994617  0.50956193    -0.39600
N390        N  0.30869477  0.00864627  0.46326517    -0.37200
N391        N  0.30930754  0.10074795  0.36467608    -0.38300
N392        N  0.28032737  0.15421183  0.41329596    -0.39900
C393        C  0.96445008  0.26582718  0.42281037    -0.04900
C394        C  0.93905010  0.27416932  0.41636615     0.09300
C395        C  0.93546440  0.29470745  0.39867035    -0.02300
C396        C  0.95733601  0.30662418  0.38711789    -0.00500
C397        C  0.98265733  0.29734203  0.39264137    -0.04100
C398        C  0.98617797  0.27704909  0.41061472     0.02900
C399        C  0.91637956  0.26094340  0.42859490     0.09700
C400        C  0.90931906  0.30333456  0.39228049     0.35600
C401        C  0.01217245  0.26796368  0.41699498     0.39000
C402        C  0.90464625  0.27197488  0.45051816    -0.04500
C403        C  0.88775833  0.25684628  0.46579472     0.02700
C404        C  0.88237209  0.23075667  0.45889678    -0.04100
C405        C  0.89244718  0.22048176  0.43580990    -0.00300
C406        C  0.90943403  0.23560676  0.42064672    -0.02900
C407        C  0.91103897  0.29842698  0.45803330     0.36400
C408        C  0.88569413  0.19422108  0.42790811     0.40000
C409        C  0.87768035  0.26748271  0.48965659     0.39100
C410        C  0.92075086  0.22476379  0.39745199     0.36000
C411        C  0.96816854  0.24582245  0.44227188     0.36700
C412        C  0.95380078  0.32821249  0.36941403     0.40000
N413        N  0.86976078  0.27589440  0.50874955    -0.38100
N414        N  0.91602810  0.31958463  0.46392948    -0.39700
N415        N  0.88027702  0.17327923  0.42162996    -0.37400
N416        N  0.92986401  0.21615091  0.37897664    -0.39800
N417        N  0.88842590  0.31019174  0.38722639    -0.39600
N418        N  0.95093083  0.34557800  0.35546454    -0.37200
N419        N  0.03272665  0.26046353  0.42242398    -0.38300
N420        N  0.97102964  0.22996627  0.45787508    -0.39900
C421        C  0.92216842  0.29675902  0.62532774    -0.04900
C422        C  0.92472346  0.26949135  0.62386647     0.09300
C423        C  0.94156393  0.25626925  0.64084335    -0.02300
C424        C  0.95681117  0.27041981  0.65851727    -0.00500
C425        C  0.95437910  0.29789434  0.66008294    -0.04100
C426        C  0.93639516  0.31087288  0.64380064     0.02900
C427        C  0.91023353  0.25476678  0.60376490     0.09700
C428        C  0.94331938  0.22807114  0.63986173     0.35600
C429        C  0.93182076  0.33862615  0.64640592     0.39000
C430        C  0.92251441  0.24905285  0.58019556    -0.04500
C431        C  0.90880464  0.23556587  0.56094097     0.02700
C432        C  0.88274126  0.22761040  0.56525873    -0.04100
C433        C  0.87045922  0.23334568  0.58889958    -0.00300
C434        C  0.88424031  0.24688548  0.60813892    -0.02900
C435        C  0.94933065  0.25704744  0.57584519     0.36400
C436        C  0.84403408  0.22445980  0.59384245     0.40000
C437        C  0.92135823  0.23042129  0.53644150     0.39100
C438        C  0.87192337  0.25237902  0.63263560     0.36000
C439        C  0.90517102  0.31031119  0.60742832     0.36700
C440        C  0.97585392  0.25665474  0.67410878     0.40000
N441        N  0.93130511  0.22629471  0.51688835    -0.38100
N442        N  0.97074262  0.26335472  0.57244299    -0.39700
N443        N  0.82298061  0.21732040  0.59779394    -0.37400
N444        N  0.86220453  0.25675279  0.65224101    -0.39800
N445        N  0.94455449  0.20555796  0.63912320    -0.39600
N446        N  0.99110290  0.24566715  0.68643269    -0.37200
N447        N  0.92790241  0.36073770  0.64844390    -0.38300
N448        N  0.89173968  0.32105498  0.59302024    -0.39900
C449        C  0.08312944  0.27721548  0.64208852    -0.04900
C450        C  0.10651457  0.27479870  0.65626759     0.09300
C451        C  0.10801748  0.28497282  0.68139663    -0.02300
C452        C  0.08622162  0.29761485  0.69227674    -0.00500
C453        C  0.06297234  0.30028689  0.67793094    -0.04100
C454        C  0.06139663  0.28987985  0.65291527     0.02900
C455        C  0.12936578  0.26131312  0.64443391     0.09700
C456        C  0.13211180  0.28272340  0.69583860     0.35600
C457        C  0.03712836  0.29152000  0.63860789     0.39000
C458        C  0.14432230  0.27415404  0.62549153    -0.04500
C459        C  0.16272114  0.26013766  0.61087642     0.02700
C460        C  0.16670925  0.23325437  0.61564980    -0.04100
C461        C  0.15338978  0.22107968  0.63626044    -0.00300
C462        C  0.13449670  0.23497813  0.65036002    -0.02900
C463        C  0.13996115  0.30162899  0.62041239     0.36400
C464        C  0.15906092  0.19419172  0.64294389     0.40000
C465        C  0.17607577  0.27306962  0.58980498     0.39100
C466        C  0.11955827  0.22193499  0.67028209     0.36000
C467        C  0.08147511  0.26661924  0.61630408     0.36700
C468        C  0.08788331  0.30842291  0.71797649     0.40000
N469        N  0.18665852  0.28338786  0.57295187    -0.38100
N470        N  0.13645469  0.32354151  0.61641636    -0.39700
N471        N  0.16369089  0.17278720  0.64830407    -0.37400
N472        N  0.10760655  0.21156325  0.68618249    -0.39800
N473        N  0.15135437  0.28090599  0.70733945    -0.39600
N474        N  0.08915307  0.31705279  0.73847622    -0.37200
N475        N  0.01773787  0.29271425  0.62726676    -0.38300
N476        N  0.08024802  0.25826415  0.59569684    -0.39900
C477        C  0.44513742  0.10930702  0.28596841    -0.04900
C478        C  0.42071243  0.12111824  0.29038755     0.09300
C479        C  0.41520783  0.14587330  0.27988762    -0.02300
C480        C  0.43399622  0.15857825  0.26448092    -0.00500
C481        C  0.45789435  0.14609099  0.25899675    -0.04100
C482        C  0.46354701  0.12156845  0.27001883     0.02900
C483        C  0.40047523  0.10623784  0.30476169     0.09700
C484        C  0.38995438  0.15776177  0.28429369     0.35600
C485        C  0.48829010  0.10879510  0.26490786     0.39000
C486        C  0.39773923  0.10948839  0.33150432    -0.04500
C487        C  0.38266683  0.09163526  0.34580772     0.02700
C488        C  0.37081858  0.07017821  0.33339912    -0.04100
C489        C  0.37215847  0.06805523  0.30632600    -0.00300
C490        C  0.38669458  0.08628958  0.29205003    -0.02900
C491        C  0.41123283  0.13063087  0.34432577     0.36400
C492        C  0.36026941  0.04610300  0.29322067     0.40000
C493        C  0.37933607  0.09537492  0.37325647     0.39100
C494        C  0.38853445  0.08391171  0.26431336     0.36000
C495        C  0.45109048  0.08420060  0.29750097     0.36700
C496        C  0.42836774  0.18393916  0.25345285     0.40000
N497        N  0.37654081  0.09839446  0.39512585    -0.38100
N498        N  0.42200278  0.14753449  0.35450840    -0.39700
N499        N  0.35091254  0.02852938  0.28278448    -0.37400
N500        N  0.39001326  0.08211347  0.24219310    -0.39800
N501        N  0.36974018  0.16716571  0.28776569    -0.39600
N502        N  0.42393169  0.20420225  0.24467220    -0.37200
N503        N  0.50786990  0.09835057  0.26085175    -0.38300
N504        N  0.45581229  0.06420499  0.30671984    -0.39900
C505        C  0.40680947  0.28217924  0.11332754    -0.04900
C506        C  0.41757788  0.25700867  0.11109858     0.09300
C507        C  0.41689419  0.24395241  0.08728402    -0.02300
C508        C  0.40602481  0.25625472  0.06559257    -0.00500
C509        C  0.39575677  0.28171062  0.06758354    -0.04100
C510        C  0.39616622  0.29466416  0.09156370     0.02900
C511        C  0.43194017  0.24503200  0.13306193     0.09700
C512        C  0.42789658  0.21799346  0.08503748     0.35600
C513        C  0.38529898  0.32065188  0.09400551     0.39000
C514        C  0.42083529  0.22423610  0.14709713    -0.04500
C515        C  0.43613933  0.21028098  0.16493509     0.02700
C516        C  0.46220100  0.21787664  0.16956297    -0.04100
C517        C  0.47268333  0.23984095  0.15679427    -0.00300
C518        C  0.45774643  0.25304739  0.13820540    -0.02900
C519        C  0.39383678  0.21698934  0.14278231     0.36400
C520        C  0.49935082  0.24803231  0.16166249     0.40000
C521        C  0.42518842  0.18799250  0.17834901     0.39100
C522        C  0.46931900  0.27412568  0.12343124     0.36000
C523        C  0.40667244  0.29512257  0.13808466     0.36700
C524        C  0.40664090  0.24309540  0.04096016     0.40000
N525        N  0.41651587  0.17013539  0.18897508    -0.38100
N526        N  0.37225220  0.21129815  0.13941042    -0.39700
N527        N  0.52058731  0.25467273  0.16548046    -0.37400
N528        N  0.47848447  0.29087189  0.11152752    -0.39800
N529        N  0.43658815  0.19725085  0.08334724    -0.39600
N530        N  0.40740141  0.23244457  0.02140890    -0.37200
N531        N  0.37667261  0.34140079  0.09597310    -0.38300
N532        N  0.40650936  0.30537634  0.15786820    -0.39900
C533        C  0.29000653  0.41501373  0.12267736    -0.04900
C534        C  0.27282142  0.39603834  0.11286564     0.09300
C535        C  0.24711224  0.39433465  0.12231908    -0.02300
C536        C  0.23841266  0.41194295  0.14126868    -0.00500
C537        C  0.25547093  0.43137038  0.15083758    -0.04100
C538        C  0.28145200  0.43257168  0.14162667     0.02900
C539        C  0.28224480  0.37792029  0.09251960     0.09700
C540        C  0.22971899  0.37441225  0.11251073     0.35600
C541        C  0.29938481  0.45225249  0.15099170     0.39000
C542        C  0.29294324  0.35354989  0.09938787    -0.04500
C543        C  0.30590246  0.33838582  0.08077872     0.02700
C544        C  0.30922163  0.34820792  0.05564507    -0.04100
C545        C  0.29714431  0.37184059  0.04842173    -0.00300
C546        C  0.28322189  0.38642567  0.06674295    -0.02900
C547        C  0.29188911  0.34487981  0.12591602     0.36400
C548        C  0.29966357  0.38146686  0.02228085     0.40000
C549        C  0.31696719  0.31336179  0.08782076     0.39100
C550        C  0.27072916  0.41068371  0.05937876     0.36000
C551        C  0.31659421  0.41650707  0.11307788     0.36700
C552        C  0.21215699  0.40946414  0.15145441     0.40000
N553        N  0.32564378  0.29331988  0.09342577    -0.38100
N554        N  0.29112167  0.33814894  0.14714896    -0.39700
N555        N  0.30178217  0.38918415  0.00146489    -0.37400
N556        N  0.26065411  0.42997432  0.05349230    -0.39800
N557        N  0.21590317  0.35843561  0.10469484    -0.39600
N558        N  0.19124248  0.40747583  0.15962681    -0.37200
N559        N  0.31396527  0.46773783  0.15839441    -0.38300
N560        N  0.33774748  0.41766950  0.10536480    -0.39900
C561        C  0.14981653  0.37731289  0.31812584    -0.04900
C562        C  0.14619789  0.38250793  0.29175281     0.09300
C563        C  0.12354097  0.37366748  0.27910837    -0.02300
C564        C  0.10406857  0.36044191  0.29299468    -0.00500
C565        C  0.10711794  0.35623360  0.31966966    -0.04100
C566        C  0.13021822  0.36425034  0.33213757     0.02900
C567        C  0.16437211  0.40022112  0.27786346     0.09700
C568        C  0.11976806  0.37933703  0.25201320     0.35600
C569        C  0.13385155  0.35898166  0.35930122     0.39000
C570        C  0.18579085  0.39024942  0.26398748    -0.04500
C571        C  0.20110111  0.40710119  0.24868984     0.02700
C572        C  0.19444917  0.43373481  0.24680329    -0.04100
C573        C  0.17328627  0.44368415  0.26114356    -0.00300
C574        C  0.15856968  0.42703299  0.27694737    -0.02900
C575        C  0.19144646  0.36258044  0.26487186     0.36400
C576        C  0.16626941  0.47102559  0.25938016     0.40000
C577        C  0.22282642  0.39687876  0.23397127     0.39100
C578        C  0.13692933  0.43732774  0.29182376     0.36000
C579        C  0.17334665  0.38615013  0.33089608     0.36700
C580        C  0.08024517  0.35252801  0.28006091     0.25600
N581        N  0.24016532  0.38873800  0.22220657    -0.38100
N582        N  0.19583017  0.34046638  0.26556048    -0.39700
N583        N  0.16028875  0.49271310  0.25791581    -0.37400
N584        N  0.11969620  0.44546097  0.30374037    -0.39800
N585        N  0.11674012  0.38399794  0.23044683    -0.39600
N586        N  0.06125466  0.34629879  0.26971196    -0.37200
N587        N  0.13684744  0.35473875  0.38095281    -0.38300
N588        N  0.19215706  0.39321257  0.34103418    -0.39900
C589        C  0.26284101  0.57376017  0.12265170    -0.04900
C590        C  0.29019433  0.57566313  0.12207077     0.09300
C591        C  0.30529916  0.56095634  0.13936016    -0.02300
C592        C  0.29319401  0.54379494  0.15692770    -0.00500
C593        C  0.26554117  0.54060819  0.15691626    -0.04100
C594        C  0.25047060  0.55643401  0.13988094     0.02900
C595        C  0.30321670  0.59301083  0.10287499     0.09700
C596        C  0.33353953  0.56328962  0.13874046     0.35600
C597        C  0.22214626  0.55553747  0.13986886     0.39000
C598        C  0.31117455  0.61832981  0.10992447    -0.04500
C599        C  0.32375378  0.63453419  0.09184642     0.02700
C600        C  0.32831641  0.62547249  0.06664973    -0.04100
C601        C  0.32038799  0.60011099  0.05960875    -0.00300
C602        C  0.30787878  0.58390554  0.07772122    -0.02900
C603        C  0.30667381  0.62749038  0.13589779     0.36400
C604        C  0.32484244  0.59077884  0.03366855     0.40000
C605        C  0.33292367  0.66015660  0.09942389     0.39100
C606        C  0.30003652  0.55770933  0.07064415     0.36000
C607        C  0.24741795  0.58969768  0.10526063     0.36700
C608        C  0.30972711  0.52962566  0.17476072     0.40000
N609        N  0.34040044  0.68053281  0.10545130    -0.38100
N610        N  0.30312264  0.63468981  0.15667393    -0.39700
N611        N  0.32835447  0.58323574  0.01300376    -0.37400
N612        N  0.29379503  0.53678841  0.06509375    -0.39800
N613        N  0.35603698  0.56516785  0.13819615    -0.39600
N614        N  0.32313691  0.51863631  0.18903328    -0.37200
N615        N  0.19956656  0.55495495  0.13955351    -0.38300
N616        N  0.23517442  0.60242377  0.09138629    -0.39900
C617        C  0.12877904  0.41313720  0.80571464    -0.04900
C618        C  0.10335481  0.42263215  0.80125293     0.09300
C619        C  0.09574904  0.44696858  0.81140954    -0.02300
C620        C  0.11370498  0.46198762  0.82557943    -0.00500
C621        C  0.13964860  0.45321692  0.82854588    -0.04100
C622        C  0.14701193  0.42856984  0.81895954     0.02900
C623        C  0.08501491  0.40742993  0.78481900     0.09700
C624        C  0.06981006  0.45702173  0.80627856     0.35600
C625        C  0.17337093  0.41900806  0.82278588     0.39000
C626        C  0.06409496  0.39364682  0.79599892    -0.04500
C627        C  0.04662121  0.37957850  0.78035770     0.02700
C628        C  0.05056536  0.37843593  0.75339950    -0.04100
C629        C  0.07220619  0.39162437  0.74242377    -0.00300
C630        C  0.08894846  0.40652682  0.75801788    -0.02900
C631        C  0.06072645  0.39383833  0.82370171     0.36400
C632        C  0.07806375  0.38912914  0.71522511     0.40000
C633        C  0.02425436  0.36699312  0.79214263     0.39100
C634        C  0.11035261  0.42097989  0.74650079     0.36000
C635        C  0.13629787  0.38766733  0.79616621     0.36700
C636        C  0.10580017  0.48695345  0.83606497     0.40000
N637        N  0.00646269  0.35702658  0.80173728    -0.38100
N638        N  0.05814096  0.39400068  0.84579559    -0.39700
N639        N  0.08283740  0.38707075  0.69358343    -0.37400
N640        N  0.12745851  0.43250377  0.73739684    -0.39800
N641        N  0.04914712  0.46505466  0.80205360    -0.39600
N642        N  0.09946330  0.50681766  0.84451027    -0.37200
N643        N  0.19436993  0.41130312  0.82576373    -0.38300
N644        N  0.14228861  0.36738658  0.78847926    -0.39900
C645        C  0.28593643  0.55196363  0.91715732    -0.04900
C646        C  0.28862918  0.57812415  0.90929980     0.09300
C647        C  0.27413298  0.58764780  0.88825985    -0.02300
C648        C  0.25546818  0.57154644  0.87632608    -0.00500
C649        C  0.25128022  0.54601303  0.88560283    -0.04100
C650        C  0.26716958  0.53593881  0.90541709     0.02900
C651        C  0.30309782  0.59654291  0.92609197     0.09700
C652        C  0.27776363  0.61430489  0.87966683     0.35600
C653        C  0.26418294  0.50914443  0.91385621     0.39000
C654        C  0.32967159  0.60211686  0.92180568    -0.04500
C655        C  0.34335567  0.61822470  0.93913860     0.02700
C656        C  0.33034664  0.62882491  0.96072146    -0.04100
C657        C  0.30360792  0.62317773  0.96479459    -0.00300
C658        C  0.29006147  0.60726184  0.94742404    -0.02900
C659        C  0.34284933  0.59106612  0.89971365     0.36400
C660        C  0.29023850  0.63241153  0.98765441     0.40000
C661        C  0.37066696  0.62406690  0.93454085     0.39100
C662        C  0.26267120  0.60135154  0.95176828     0.36000
C663        C  0.30184133  0.54193325  0.93803262     0.36700
C664        C  0.23968029  0.58163630  0.85541327     0.40000
N665        N  0.39244656  0.62872837  0.93082758    -0.38100
N666        N  0.35333765  0.58225522  0.88204757    -0.39700
N667        N  0.27956990  0.63960735  0.00592547    -0.37400
N668        N  0.24087037  0.59654274  0.95513983    -0.39800
N669        N  0.28077234  0.63557011  0.87281884    -0.39600
N670        N  0.22705348  0.58964736  0.83873507    -0.37200
N671        N  0.26210712  0.48779904  0.92076698    -0.38300
N672        N  0.31458720  0.53400356  0.95465915    -0.39900
C673        C  0.26948115  0.40580733  0.88025381    -0.04900
C674        C  0.26897353  0.40118018  0.90685505     0.09300
C675        C  0.25055245  0.41385899  0.92244059    -0.02300
C676        C  0.23326421  0.43214401  0.91168471    -0.00500
C677        C  0.23493969  0.43871814  0.88506401    -0.04100
C678        C  0.25261785  0.42444447  0.86927092     0.02900
C679        C  0.28838802  0.38347071  0.91896815     0.09700
C680        C  0.24991283  0.40853451  0.94988877     0.35600
C681        C  0.25375777  0.42842929  0.84166725     0.39000
C682        C  0.31322640  0.39303155  0.92547764    -0.04500
C683        C  0.33021447  0.37783663  0.94060691     0.02700
C684        C  0.32217509  0.35292049  0.94981932    -0.04100
C685        C  0.29796057  0.34255453  0.94084331    -0.00300
C686        C  0.28118033  0.35797589  0.92573051    -0.02900
C687        C  0.32084269  0.41901842  0.91727505     0.36400
C688        C  0.28952144  0.31633589  0.94726675     0.40000
C689        C  0.35578953  0.38840738  0.94660453     0.39100
C690        C  0.25588578  0.34799946  0.91780519     0.36000
C691        C  0.28776209  0.39153709  0.86426970     0.36700
C692        C  0.21433309  0.44425373  0.92868034     0.40000
N693        N  0.37608262  0.39706585  0.95128599    -0.38100
N694        N  0.32680673  0.43973904  0.91063302    -0.39700
N695        N  0.28259457  0.29541673  0.95219746    -0.37400
N696        N  0.23570724  0.34014304  0.91154917    -0.39800
N697        N  0.24935081  0.40435823  0.97175465    -0.39600
N698        N  0.19932259  0.45371309  0.94242028    -0.37200
N699        N  0.25483654  0.43142962  0.81962712    -0.38300
N700        N  0.30235404  0.38013963  0.85158215    -0.39900
C701        C  0.45807523  0.77222381  0.12662191    -0.04900
C702        C  0.43502012  0.75848358  0.13237836     0.09300
C703        C  0.42405718  0.75985492  0.15718147    -0.02300
C704        C  0.43627977  0.77486293  0.17637927    -0.00500
C705        C  0.45945598  0.78872698  0.17071553    -0.04100
C706        C  0.47026324  0.78738312  0.14564962     0.02900
C707        C  0.42226558  0.74248900  0.11211496     0.09700
C708        C  0.40028490  0.74560506  0.16288578     0.35600
C709        C  0.49469207  0.80040403  0.13963632     0.39000
C710        C  0.42892099  0.71604968  0.10929777    -0.04500
C711        C  0.41687126  0.70086168  0.09013711     0.02700
C712        C  0.39872562  0.71238667  0.07287677    -0.04100
C713        C  0.39276190  0.73935401  0.07550468    -0.00300
C714        C  0.40417993  0.75408674  0.09532811    -0.02900
C715        C  0.44859408  0.70466531  0.12594074     0.36400
C716        C  0.37592036  0.75260166  0.05724092     0.40000
C717        C  0.42305550  0.67329123  0.08876266     0.39100
C718        C  0.39770016  0.78147667  0.09826986     0.36000
C719        C  0.46954550  0.77020717  0.10117658     0.36700
C720        C  0.42477876  0.77623701  0.20182724     0.40000
N721        N  0.42809815  0.65134274  0.08774249    -0.38100
N722        N  0.46446384  0.69572628  0.13910920    -0.39700
N723        N  0.36260012  0.76330891  0.04266752    -0.37400
N724        N  0.39257175  0.80329047  0.10066079    -0.39800
N725        N  0.38132864  0.73416996  0.16732878    -0.39600
N726        N  0.41562376  0.77725512  0.22213647    -0.37200
N727        N  0.51419249  0.81070765  0.13478441    -0.38300
N728        N  0.47868122  0.76846376  0.08090917    -0.39900
C729        C  0.43445383  0.88668795  0.29910734    -0.04900
C730        C  0.41573559  0.90123485  0.28536260     0.09300
C731        C  0.41174653  0.89656571  0.25898301    -0.02300
C732        C  0.42703763  0.87788721  0.24612668    -0.00500
C733        C  0.44664948  0.86413048  0.25957387    -0.04100
C734        C  0.44987823  0.86812094  0.28628611     0.02900
C735        C  0.40059972  0.92191515  0.29873814     0.09700
C736        C  0.39241508  0.91157593  0.24499454     0.35600
C737        C  0.47013519  0.85437606  0.30034282     0.39000
C738        C  0.41056110  0.94751764  0.29999531    -0.04500
C739        C  0.39732219  0.96658927  0.31439405     0.02700
C740        C  0.37387985  0.96014718  0.32718291    -0.04100
C741        C  0.36334905  0.93482419  0.32496771    -0.00300
C742        C  0.37681859  0.91567613  0.31089627    -0.02900
C743        C  0.43448793  0.95409796  0.28653571     0.36400
C744        C  0.33914305  0.92821266  0.33791946     0.40000
C745        C  0.40763044  0.99289795  0.31583223     0.39100
C746        C  0.36651134  0.88940393  0.30922213     0.36000
C747        C  0.43845313  0.89157973  0.32628986     0.36700
C748        C  0.42248241  0.87267811  0.21909754     0.40000
N749        N  0.41583250  0.01388495  0.31695266    -0.38100
N750        N  0.45350997  0.95930285  0.27566748    -0.39700
N751        N  0.31981560  0.92295476  0.34822302    -0.37400
N752        N  0.35836116  0.86841651  0.30784047    -0.39800
N753        N  0.37705500  0.92369810  0.23389110    -0.39600
N754        N  0.41880213  0.86839980  0.19756976    -0.37200
N755        N  0.48632740  0.84348581  0.31154981    -0.38300
N756        N  0.44168330  0.89555977  0.34794278    -0.39900
C757        C  0.74180787  0.09633998  0.40141627    -0.04900
C758        C  0.76903007  0.09353770  0.40409935     0.09300
C759        C  0.78201762  0.07267370  0.39196275    -0.02300
C760        C  0.76760144  0.05367429  0.37860930    -0.00500
C761        C  0.74011738  0.05551894  0.37733953    -0.04100
C762        C  0.72732207  0.07733652  0.38813468     0.02900
C763        C  0.78355139  0.11059042  0.42231571     0.09700
C764        C  0.81010126  0.07015766  0.39435545     0.35600
C765        C  0.69923715  0.08012007  0.38585978     0.39000
C766        C  0.79016041  0.10082086  0.44682815    -0.04500
C767        C  0.80370378  0.11659979  0.46438593     0.02700
C768        C  0.80995773  0.14258818  0.45776477    -0.04100
C769        C  0.80340142  0.15239200  0.43325232    -0.00300
C770        C  0.79041061  0.13632080  0.41540701    -0.02900
C771        C  0.78271065  0.07446701  0.45410316     0.36400
C772        C  0.81082455  0.17875034  0.42608246     0.40000
C773        C  0.81081836  0.10621388  0.48937231     0.39100
C774        C  0.78429308  0.14603463  0.38995613     0.36000
C775        C  0.72858485  0.11828936  0.41321346     0.36700
C776        C  0.78097070  0.03127041  0.36782139     0.40000
N777        N  0.81661778  0.09779399  0.50926530    -0.38100
N778        N  0.77676724  0.05350379  0.45978135    -0.39700
N779        N  0.81683537  0.19969422  0.42040799    -0.37400
N780        N  0.77939197  0.15377998  0.36957434    -0.39800
N781        N  0.83250696  0.06810213  0.39643620    -0.39600
N782        N  0.79158287  0.01338260  0.35928557    -0.37200
N783        N  0.67681930  0.08235515  0.38405675    -0.38300
N784        N  0.71811022  0.13585028  0.42252811    -0.39900
C785        C  0.62682726  0.91987450  0.28873767    -0.04900
C786        C  0.61718138  0.90054547  0.30560041     0.09300
C787        C  0.62787602  0.89792720  0.33042777    -0.02300
C788        C  0.64737797  0.91534838  0.33875246    -0.00500
C789        C  0.65542649  0.93613044  0.32265179    -0.04100
C790        C  0.64545525  0.93798757  0.29737463     0.02900
C791        C  0.59454488  0.88428192  0.29740983     0.09700
C792        C  0.61822083  0.87782636  0.34762154     0.35600
C793        C  0.65281177  0.95957096  0.28078523     0.39000
C794        C  0.59819445  0.85817411  0.28976520    -0.04500
C795        C  0.57752088  0.84440675  0.27818471     0.02700
C796        C  0.55366325  0.85720003  0.27312972    -0.04100
C797        C  0.54949492  0.88270298  0.28231107    -0.00300
C798        C  0.56972662  0.89597652  0.29500532    -0.02900
C799        C  0.62353906  0.84595601  0.29265239     0.36400
C800        C  0.52455115  0.89547318  0.27826246     0.40000
C801        C  0.58132583  0.81762535  0.27010881     0.39100
C802        C  0.56534777  0.92204019  0.30488516     0.36000
C803        C  0.61691655  0.92156948  0.26264050     0.36700
C804        C  0.65929762  0.91174882  0.36381338     0.40000
N805        N  0.58430557  0.79623857  0.26372211    -0.38100
N806        N  0.64375937  0.83620327  0.29498629    -0.39700
N807        N  0.50472827  0.90575571  0.27498425    -0.37400
N808        N  0.56188655  0.94279887  0.31283824    -0.39800
N809        N  0.61049925  0.86174768  0.36129148    -0.39600
N810        N  0.66893417  0.90879949  0.38372520    -0.37200
N811        N  0.65849895  0.97690504  0.26764698    -0.38300
N812        N  0.60898252  0.92286828  0.24185457    -0.39900
C813        C  0.60114872  0.10240866  0.25073286    -0.04900
C814        C  0.59851139  0.09926192  0.27751503     0.09300
C815        C  0.57967288  0.11370126  0.29112035    -0.02300
C816        C  0.56295085  0.13083668  0.27784744    -0.00500
C817        C  0.56466166  0.13303678  0.25078082    -0.04100
C818        C  0.58420069  0.11917163  0.23733991     0.02900
C819        C  0.61580017  0.08072942  0.29141492     0.09700
C820        C  0.57738197  0.11061041  0.31875851     0.35600
C821        C  0.58735380  0.12264809  0.20981104     0.39000
C822        C  0.64097576  0.08868245  0.29895199    -0.04500
C823        C  0.65791836  0.07077434  0.31079168     0.02700
C824        C  0.64923627  0.04523655  0.31618420    -0.04100
C825        C  0.62377966  0.03746202  0.30929365    -0.00300
C826        C  0.60722977  0.05507895  0.29644431    -0.02900
C827        C  0.64933619  0.11533734  0.29453904     0.36400
C828        C  0.61490383  0.01116509  0.31479542     0.40000
C829        C  0.68426327  0.07864536  0.31745290     0.39100
C830        C  0.58159215  0.04676848  0.28793162     0.36000
C831        C  0.62133137  0.08830204  0.23700567     0.36700
C832        C  0.54348731  0.14547667  0.29202837     0.40000
N833        N  0.70532643  0.08492212  0.32256471    -0.38100
N834        N  0.65588592  0.13665114  0.29111690    -0.39700
N835        N  0.60777915  0.99022878  0.31925358    -0.37400
N836        N  0.56118429  0.04014477  0.28099704    -0.39800
N837        N  0.57557910  0.10801960  0.34079271    -0.39600
N838        N  0.52805167  0.15722040  0.30338301    -0.37200
N839        N  0.58987228  0.12548485  0.18787157    -0.38300
N840        N  0.63753047  0.07712158  0.22614232    -0.39900
C841        C  0.32141921  0.08886079  0.63959583    -0.04900
C842        C  0.30326545  0.10214216  0.65508032     0.09300
C843        C  0.30314492  0.09829004  0.68182593    -0.02300
C844        C  0.32076165  0.08064254  0.69315572    -0.00500
C845        C  0.33749569  0.06522882  0.67748110    -0.04100
C846        C  0.33800138  0.07000702  0.65050459     0.02900
C847        C  0.28311360  0.11884069  0.64271062     0.09700
C848        C  0.28426345  0.11199682  0.69762710     0.35600
C849        C  0.35462004  0.05508325  0.63336156     0.39000
C850        C  0.26284932  0.10700093  0.62868907    -0.04500
C851        C  0.24561733  0.12235818  0.61410646     0.02700
C852        C  0.24782944  0.14997174  0.61443291    -0.04100
C853        C  0.26689888  0.16175376  0.63041986    -0.00300
C854        C  0.28486768  0.14618681  0.64398684    -0.02900
C855        C  0.26019337  0.07879034  0.62881114     0.36400
C856        C  0.26802802  0.18986446  0.63330438     0.40000
C857        C  0.22667378  0.10928601  0.59786091     0.39100
C858        C  0.30554326  0.15825194  0.65885103     0.36000
C859        C  0.32241445  0.09417115  0.61215453     0.36700
C860        C  0.32154872  0.07888461  0.72099067     0.40000
N861        N  0.21165168  0.09871106  0.58493875    -0.38100
N862        N  0.25815290  0.05632904  0.62894966    -0.39700
N863        N  0.26894424  0.21226164  0.63570961    -0.37400
N864        N  0.32201346  0.16781411  0.67078542    -0.39800
N865        N  0.26917399  0.12292585  0.71014768    -0.39600
N866        N  0.32209914  0.07764789  0.74321091    -0.37200
N867        N  0.36772269  0.04327592  0.61951046    -0.38300
N868        N  0.32313912  0.09842808  0.59030068    -0.39900
C869        C  0.28112983  0.94972149  0.66248831    -0.04900
C870        C  0.28908685  0.92812654  0.64778809     0.09300
C871        C  0.31575665  0.92156391  0.64628581    -0.02300
C872        C  0.33445932  0.93634948  0.65967973    -0.00500
C873        C  0.32668957  0.95823236  0.67425504    -0.04100
C874        C  0.29985042  0.96487530  0.67558146     0.02900
C875        C  0.26955461  0.91191831  0.63379969     0.09700
C876        C  0.32392782  0.89958911  0.63071473     0.35600
C877        C  0.29144899  0.98781775  0.68959990     0.39000
C878        C  0.26091637  0.91951086  0.60916430    -0.04500
C879        C  0.24561246  0.90234190  0.59437286     0.02700
C880        C  0.23935303  0.87733427  0.60406636    -0.04100
C881        C  0.24656056  0.87048159  0.62936519    -0.00300
C882        C  0.26152477  0.88782777  0.64426330    -0.02900
C883        C  0.26866430  0.94458190  0.59869259     0.36400
C884        C  0.23842614  0.84563915  0.64007783     0.40000
C885        C  0.23755451  0.90991549  0.56867380     0.39100
C886        C  0.26924183  0.88073508  0.67016550     0.36000
C887        C  0.25366086  0.95639813  0.66392167     0.36700
C888        C  0.36158457  0.92838640  0.65903320     0.40000
N889        N  0.23115535  0.91598288  0.54818063    -0.38100
N890        N  0.27483633  0.96459511  0.59037027    -0.39700
N891        N  0.23180707  0.82585198  0.64858994    -0.37400
N892        N  0.27542426  0.87519442  0.69085976    -0.39800
N893        N  0.33035994  0.88208977  0.61823269    -0.39600
N894        N  0.38313600  0.92174180  0.65843284    -0.37200
N895        N  0.28471062  0.00611348  0.70075704    -0.38300
N896        N  0.23174157  0.96170346  0.66499656    -0.39900
C897        C  0.28260846  0.89242468  0.48826724    -0.04900
C898        C  0.27244984  0.89439976  0.46311067     0.09300
C899        C  0.25046920  0.87945924  0.45600251    -0.02300
C900        C  0.23765699  0.86394748  0.47446398    -0.00500
C901        C  0.24747271  0.86251329  0.49975887    -0.04100
C902        C  0.27051271  0.87600209  0.50638352     0.02900
C903        C  0.28375292  0.91379981  0.44484729     0.09700
C904        C  0.24080137  0.88046965  0.42981754     0.35600
C905        C  0.28118048  0.87391723  0.53216284     0.39000
C906        C  0.30871377  0.90979535  0.43408526    -0.04500
C907        C  0.32040462  0.92947238  0.41904425     0.02700
C908        C  0.30678310  0.95289342  0.41407943    -0.04100
C909        C  0.28141465  0.95646857  0.42413293    -0.00300
C910        C  0.27006819  0.93709135  0.43969228    -0.02900
C911        C  0.32237675  0.88547496  0.43871194     0.36400
C912        C  0.26741975  0.98064071  0.41956155     0.40000
C913        C  0.34631313  0.92546633  0.40849463     0.39100
C914        C  0.24455792  0.94144146  0.45105068     0.36000
C915        C  0.30485695  0.90816305  0.49581459     0.36700
C916        C  0.21442379  0.84941317  0.46746280     0.40000
N917        N  0.36699961  0.92226247  0.40014509    -0.38100
N918        N  0.33323819  0.86606972  0.44249115    -0.39700
N919        N  0.25630080  0.99993396  0.41594890    -0.37400
N920        N  0.22419301  0.94483496  0.46005966    -0.39800
N921        N  0.23307426  0.88128822  0.40893434    -0.39600
N922        N  0.19585322  0.83784498  0.46196792    -0.37200
N923        N  0.28979716  0.87222580  0.55265952    -0.38300
N924        N  0.32258106  0.92075796  0.50178938    -0.39900
C925        C  0.14572162  0.70020185  0.44566523    -0.04900
C926        C  0.14138607  0.72731466  0.44621521     0.09300
C927        C  0.12317557  0.73864377  0.42924693    -0.02300
C928        C  0.10837955  0.72277794  0.41263235    -0.00500
C929        C  0.11223036  0.69540611  0.41239656    -0.04100
C930        C  0.13132361  0.68428338  0.42875259     0.02900
C931        C  0.15434221  0.74366395  0.46622759     0.09700
C932        C  0.11935765  0.76667054  0.42930260     0.35600
C933        C  0.13638929  0.65647847  0.42815660     0.39000
C934        C  0.18038008  0.75207324  0.46307682    -0.04500
C935        C  0.19237449  0.76742585  0.48220744     0.02700
C936        C  0.17813866  0.77487975  0.50427002    -0.04100
C937        C  0.15220476  0.76608560  0.50754386    -0.00300
C938        C  0.14039117  0.75049421  0.48860093    -0.02900
C939        C  0.19454400  0.74538456  0.43988720     0.36400
C940        C  0.13786355  0.77256061  0.53073058     0.40000
C941        C  0.21907258  0.77623065  0.47876864     0.39100
C942        C  0.11375105  0.74147887  0.49203049     0.36000
C943        C  0.16472919  0.68866477  0.46292948     0.36700
C944        C  0.08817316  0.73465272  0.39693937     0.40000
N945        N  0.24037625  0.78321710  0.47609678    -0.38100
N946        N  0.20581389  0.74008841  0.42133098    -0.39700
N947        N  0.12648411  0.77770315  0.54926803    -0.37400
N948        N  0.09250305  0.73429876  0.49461666    -0.39800
N949        N  0.11636537  0.78902963  0.42934040    -0.39600
N950        N  0.07201016  0.74414579  0.38452796    -0.37200
N951        N  0.14038176  0.63428162  0.42773437    -0.38300
N952        N  0.17995300  0.67956707  0.47669555    -0.39900
C953        C  0.17789715  0.57561830  0.26321669    -0.04900
C954        C  0.17893360  0.56885096  0.28947224     0.09300
C955        C  0.19434352  0.54767652  0.29759711    -0.02300
C956        C  0.20709273  0.53196916  0.27930131    -0.00500
C957        C  0.20517155  0.53802318  0.25275560    -0.04100
C958        C  0.19135507  0.56054386  0.24495183     0.02900
C959        C  0.16141829  0.58233149  0.30801173     0.09700
C960        C  0.19619726  0.54155923  0.32477921     0.35600
C961        C  0.19088627  0.56828571  0.21811961     0.39000
C962        C  0.13714858  0.57095277  0.31424143    -0.04500
C963        C  0.11885382  0.58496903  0.32882639     0.02700
C964        C  0.12480386  0.61043124  0.33722702    -0.04100
C965        C  0.14967925  0.62118238  0.33238652    -0.00300
C966        C  0.16801254  0.60710189  0.31775572    -0.02900
C967        C  0.13065752  0.54511530  0.30490605     0.36400
C968        C  0.15644063  0.64651796  0.34276243     0.40000
C969        C  0.09339329  0.57365799  0.33402158     0.39100
C970        C  0.19349806  0.61812271  0.31238410     0.36000
C971        C  0.16201583  0.59749087  0.25492300     0.36700
C972        C  0.22031355  0.50847914  0.28781137     0.40000
N973        N  0.07311447  0.56462623  0.33815818    -0.38100
N974        N  0.12542559  0.52448134  0.29759603    -0.39700
N975        N  0.16181617  0.66665688  0.35123151    -0.37400
N976        N  0.21387564  0.62684807  0.30809818    -0.39800
N977        N  0.19768029  0.53679323  0.34648198    -0.39600
N978        N  0.23064079  0.48964100  0.29464417    -0.37200
N979        N  0.19051755  0.57461282  0.19676302    -0.38300
N980        N  0.14925280  0.61488317  0.24837764    -0.39900
C981        C  0.93481464  0.58331017  0.27116024    -0.04900
C982        C  0.95846788  0.57052047  0.27710172     0.09300
C983        C  0.96286513  0.54495916  0.26821261    -0.02300
C984        C  0.94368240  0.53222478  0.25350744    -0.00500
C985        C  0.91933229  0.54435050  0.24905607    -0.04100
C986        C  0.91497579  0.56997828  0.25775467     0.02900
C987        C  0.97852926  0.58370995  0.29334329     0.09700
C988        C  0.98694715  0.53158810  0.27466776     0.35600
C989        C  0.89031782  0.58274937  0.25240032     0.39000
C990        C  0.97483035  0.58544146  0.32014183    -0.04500
C991        C  0.99327116  0.59851569  0.33552004     0.02700
C992        C  0.01618618  0.60899049  0.32429792    -0.04100
C993        C  0.02037284  0.60614543  0.29753851    -0.00300
C994        C  0.00130705  0.59408684  0.28206146    -0.02900
C995        C  0.95197413  0.57364973  0.33186270     0.36400
C996        C  0.04463946  0.61486663  0.28595310     0.40000
C997        C  0.98795503  0.60211724  0.36268253     0.39100
C998        C  0.00495285  0.59254809  0.25445068     0.36000
C999        C  0.93113943  0.61028894  0.27855552     0.36700
C1000       C  0.94908370  0.50658770  0.24306147     0.40000
N1001       N  0.98363785  0.60507941  0.38431995    -0.38100
N1002       N  0.93377803  0.56412405  0.34113874    -0.39700
N1003       N  0.06406050  0.62167283  0.27675776    -0.37400
N1004       N  0.00777252  0.59135290  0.23241206    -0.39800
N1005       N  0.00610960  0.52089725  0.27990717    -0.39600
N1006       N  0.95387516  0.48635075  0.23450878    -0.37200
N1007       N  0.87060676  0.59285927  0.24809458    -0.38300
N1008       N  0.92839552  0.63189390  0.28428319    -0.39900
C1009       C  0.93262962  0.42314575  0.27707842    -0.04900
C1010       C  0.94590282  0.40574185  0.26079733     0.09300
C1011       C  0.94071008  0.40568128  0.23423759    -0.02300
C1012       C  0.92242226  0.42332821  0.22383181    -0.00500
C1013       C  0.90987135  0.44173603  0.23992947    -0.04100
C1014       C  0.91530558  0.44157438  0.26670992     0.02900
C1015       C  0.96649460  0.38870062  0.27195013     0.09700
C1016       C  0.95458554  0.38772562  0.21764471     0.35600
C1017       C  0.90465751  0.46138872  0.28363604     0.39000
C1018       C  0.96086628  0.36259020  0.27834668    -0.04500
C1019       C  0.97851949  0.34818829  0.29351046     0.02700
C1020       C  0.00134122  0.36030219  0.30300518    -0.04100
C1021       C  0.00785383  0.38579603  0.29485601    -0.00300
C1022       C  0.99057644  0.39982982  0.27908873    -0.02900
C1023       C  0.93630695  0.35106991  0.27043251     0.36400
C1024       C  0.03224618  0.39772953  0.30282977     0.40000
C1025       C  0.97239050  0.32148866  0.30050140     0.39100
C1026       C  0.99699772  0.42617482  0.27102967     0.36000
C1027       C  0.93727556  0.42235901  0.30463102     0.36700
C1028       C  0.91660280  0.42227088  0.19659177     0.40000
N1029       N  0.96754147  0.30016073  0.30601648    -0.38100
N1030       N  0.91669245  0.34192839  0.26410227    -0.39700
N1031       N  0.05166879  0.40726110  0.30919240    -0.37400
N1032       N  0.00205899  0.44718134  0.26457887    -0.39800
N1033       N  0.96570631  0.37337570  0.20446644    -0.39600
N1034       N  0.91216966  0.42121752  0.17481755    -0.37200
N1035       N  0.89637539  0.47723678  0.29717294    -0.38300
N1036       N  0.94097971  0.42162278  0.32656178    -0.39900
C1037       C  0.74979189  0.41101599  0.11443497    -0.04900
C1038       C  0.76111233  0.40131121  0.13721309     0.09300
C1039       C  0.75673777  0.37523811  0.14469533    -0.02300
C1040       C  0.74206609  0.35855373  0.12879574    -0.00500
C1041       C  0.73229897  0.36772437  0.10505873    -0.04100
C1042       C  0.73567959  0.39423037  0.09818739     0.02900
C1043       C  0.77962554  0.41796769  0.15201472     0.09700
C1044       C  0.76824586  0.36537880  0.16823592     0.35600
C1045       C  0.72640824  0.40387247  0.07357965     0.39000
C1046       C  0.77147292  0.43088769  0.17439380    -0.04500
C1047       C  0.78898603  0.44704403  0.18797967     0.02700
C1048       C  0.81477734  0.45131080  0.17854557    -0.04100
C1049       C  0.82286219  0.43753560  0.15614635    -0.00300
C1050       C  0.80544896  0.42080742  0.14326911    -0.02900
C1051       C  0.74481581  0.42758985  0.18333577     0.36400
C1052       C  0.84923320  0.43982742  0.14611691     0.40000
C1053       C  0.78006290  0.45880864  0.21169140     0.39100
C1054       C  0.81411622  0.40620078  0.12095787     0.36000
C1055       C  0.75360039  0.43811328  0.10725353     0.36700
C1056       C  0.73709620  0.33189557  0.13681357     0.40000
N1057       N  0.77270069  0.46761030  0.23085082    -0.38100
N1058       N  0.72357420  0.42491407  0.19038341    -0.39700
N1059       N  0.87006020  0.44160036  0.13772693    -0.37400
N1060       N  0.82103393  0.39445439  0.10323807    -0.39800
N1061       N  0.77751567  0.35755863  0.18702055    -0.39600
N1062       N  0.73300732  0.31066843  0.14319092    -0.37200
N1063       N  0.71915049  0.41156208  0.05389719    -0.38300
N1064       N  0.75665088  0.45970874  0.10156171    -0.39900
C1065       C  0.58268412  0.22070473  0.12452752    -0.04900
C1066       C  0.60734643  0.22620233  0.13524305     0.09300
C1067       C  0.61337222  0.21783326  0.16036904    -0.02300
C1068       C  0.59414442  0.20561868  0.17546477    -0.00500
C1069       C  0.56892916  0.20154036  0.16532299    -0.04100
C1070       C  0.56351746  0.20813813  0.13948888     0.02900
C1071       C  0.62630290  0.24277842  0.12100275     0.09700
C1072       C  0.63925522  0.22231499  0.17076189     0.35600
C1073       C  0.53789748  0.20313298  0.12866978     0.39000
C1074       C  0.62767167  0.26963050  0.12653875    -0.04500
C1075       C  0.64600412  0.28545692  0.11383146     0.02700
C1076       C  0.66263875  0.27460009  0.09503552    -0.04100
C1077       C  0.66128658  0.24762101  0.08955678    -0.00300
C1078       C  0.64309864  0.23175819  0.10256169    -0.02900
C1079       C  0.60975956  0.28101836  0.14497842     0.36400
C1080       C  0.67768725  0.23634427  0.06974492     0.40000
C1081       C  0.64806983  0.31285023  0.12048193     0.39100
C1082       C  0.64117574  0.20421813  0.09660270     0.36000
C1083       C  0.57683574  0.22876989  0.09841467     0.36700
C1084       C  0.60037853  0.19700228  0.20133741     0.40000
N1085       N  0.64980964  0.33466578  0.12580487    -0.38100
N1086       N  0.59533349  0.29003708  0.15958775    -0.39700
N1087       N  0.69072378  0.22735230  0.05390064    -0.37400
N1088       N  0.63948990  0.18228329  0.09176533    -0.39800
N1089       N  0.65994562  0.22591141  0.17892775    -0.39600
N1090       N  0.60536790  0.19004471  0.22193532    -0.37200
N1091       N  0.51746548  0.19913280  0.12005155    -0.38300
N1092       N  0.57221305  0.23517981  0.07756433    -0.39900
C1093       C  0.44205918  0.10337949  0.74110597    -0.04900
C1094       C  0.45826990  0.09724535  0.76215503     0.09300
C1095       C  0.45930467  0.07142394  0.77159333    -0.02300
C1096       C  0.44381123  0.05191930  0.76026829    -0.00500
C1097       C  0.42731733  0.05814064  0.73949175    -0.04100
C1098       C  0.42671842  0.08381503  0.72964896     0.02900
C1099       C  0.47459803  0.11782612  0.77438073     0.09700
C1100       C  0.47639421  0.06497302  0.79289701     0.35600
C1101       C  0.41004307  0.09017759  0.70801091     0.39000
C1102       C  0.46772413  0.12758639  0.79882697    -0.04500
C1103       C  0.48478661  0.14457202  0.81176378     0.02700
C1104       C  0.50860209  0.15198053  0.80028282    -0.04100
C1105       C  0.51452379  0.14381654  0.77499733    -0.00300
C1106       C  0.49762537  0.12650381  0.76223280    -0.02900
C1107       C  0.44355715  0.11947806  0.81086873     0.36400
C1108       C  0.53864126  0.15184870  0.76279414     0.40000
C1109       C  0.47785533  0.15439846  0.83707645     0.39100
C1110       C  0.50459120  0.11662220  0.73698048     0.36000
C1111       C  0.44100226  0.12992008  0.73144140     0.36700
C1112       C  0.44549724  0.02526892  0.76950262     0.40000
N1113       N  0.47243217  0.16228166  0.85713486    -0.38100
N1114       N  0.42424448  0.11286432  0.82055053    -0.39700
N1115       N  0.55795631  0.15832323  0.75299817    -0.37400
N1116       N  0.51008115  0.10878191  0.71691833    -0.39800
N1117       N  0.48996806  0.05989689  0.80998598    -0.39600
N1118       N  0.44721892  0.00407135  0.77685519    -0.37200
N1119       N  0.39681666  0.09534452  0.69067779    -0.38300
N1120       N  0.44028971  0.15106947  0.72374727    -0.39900
C1121       C  0.65048100  0.24989561  0.96944079    -0.04900
C1122       C  0.66576683  0.24907801  0.94690976     0.09300
C1123       C  0.69084577  0.26032459  0.94655008    -0.02300
C1124       C  0.70017706  0.27349829  0.96842207    -0.00500
C1125       C  0.68419765  0.27562876  0.99045969    -0.04100
C1126       C  0.65955130  0.26340732  0.99111236     0.02900
C1127       C  0.65405218  0.23842332  0.92303345     0.09700
C1128       C  0.70661376  0.25891803  0.92344692     0.35600
C1129       C  0.64342182  0.26489406  0.01401705     0.39000
C1130       C  0.63832998  0.25473770  0.90770553    -0.04500
C1131       C  0.62256263  0.24395803  0.88832536     0.02700
C1132       C  0.62277550  0.21670188  0.88408732    -0.04100
C1133       C  0.64046744  0.20080653  0.89792757    -0.00300
C1134       C  0.65587874  0.21163648  0.91757998    -0.02900
C1135       C  0.63728065  0.28251119  0.91299387     0.36400
C1136       C  0.64258406  0.17318770  0.89223509     0.40000
C1137       C  0.60478296  0.26074822  0.87428840     0.39100
C1138       C  0.67266984  0.19514188  0.93303396     0.36000
C1139       C  0.62512861  0.23727515  0.97004481     0.36700
C1140       C  0.72557424  0.28601043  0.96776081     0.40000
N1141       N  0.59058223  0.27422790  0.86315437    -0.38100
N1142       N  0.63649903  0.30459091  0.91732647    -0.39700
N1143       N  0.64422910  0.15120545  0.88767314    -0.37400
N1144       N  0.68604222  0.18198352  0.94545116    -0.39800
N1145       N  0.71916660  0.25775165  0.90498943    -0.39600
N1146       N  0.74580863  0.29603470  0.96722032    -0.37200
N1147       N  0.63049286  0.26613567  0.03221947    -0.38300
N1148       N  0.60496764  0.22711182  0.97049825    -0.39900
C1149       C  0.43408757  0.25015267  0.93428213    -0.04900
C1150       C  0.45319603  0.26687927  0.92392911     0.09300
C1151       C  0.45191008  0.29379582  0.92868282    -0.02300
C1152       C  0.43197310  0.30400677  0.94442239    -0.00500
C1153       C  0.41356771  0.28709077  0.95649326    -0.04100
C1154       C  0.41433938  0.26006967  0.95042217     0.02900
C1155       C  0.47516319  0.25575385  0.90859804     0.09700
C1156       C  0.47146172  0.31094713  0.91758622     0.35600
C1157       C  0.39510003  0.24204439  0.96062734     0.39000
C1158       C  0.47370828  0.25481423  0.88155270    -0.04500
C1159       C  0.49320822  0.24179114  0.86737279     0.02700
C1160       C  0.51425872  0.22962358  0.88027173    -0.04100
C1161       C  0.51622036  0.23168106  0.90734119    -0.00300
C1162       C  0.49679088  0.24482473  0.92139168    -0.02900
C1163       C  0.45179201  0.26677399  0.86843000     0.36400
C1164       C  0.53827545  0.22034901  0.92083241     0.40000
C1165       C  0.49075633  0.23974047  0.83966902     0.39100
C1166       C  0.49883800  0.24695562  0.94913322     0.36000
C1167       C  0.43505962  0.22249583  0.92849414     0.36700
C1168       C  0.43017178  0.33209520  0.94721000     0.40000
N1169       N  0.48879395  0.23807800  0.81757382    -0.38100
N1170       N  0.43432896  0.27641502  0.85800038    -0.39700
N1171       N  0.55580426  0.21120336  0.93158824    -0.37400
N1172       N  0.50041664  0.24877386  0.97124481    -0.39800
N1173       N  0.48710266  0.32456717  0.90876074    -0.39600
N1174       N  0.42879411  0.35451599  0.94924300    -0.37200
N1175       N  0.37973280  0.22750233  0.96844321    -0.38300
N1176       N  0.43591908  0.20046619  0.92384246    -0.39900
C1177       C  0.94076579  0.76088227  0.42308533    -0.04900
C1178       C  0.94226817  0.73435296  0.43004279     0.09300
C1179       C  0.92519539  0.72412888  0.44875294    -0.02300
C1180       C  0.90789683  0.74076071  0.46184110    -0.00500
C1181       C  0.90692912  0.76765096  0.45555010    -0.04100
C1182       C  0.92277314  0.77738178  0.43541204     0.02900
C1183       C  0.96325927  0.71769914  0.41903271     0.09700
C1184       C  0.92620899  0.69660763  0.45520931     0.35600
C1185       C  0.92067214  0.80437144  0.42727418     0.39000
C1186       C  0.98537644  0.71165969  0.43407618    -0.04500
C1187       C  0.00606705  0.69738200  0.42335511     0.02700
C1188       C  0.00484194  0.68933468  0.39744513    -0.04100
C1189       C  0.98253265  0.69496322  0.38251444    -0.00300
C1190       C  0.96164671  0.70895356  0.39339650    -0.02900
C1191       C  0.98701194  0.72052142  0.46050801     0.36400
C1192       C  0.98081862  0.68588165  0.35616745     0.40000
C1193       C  0.02905606  0.69180802  0.43874275     0.39100
C1194       C  0.93845054  0.71434511  0.37832930     0.36000
C1195       C  0.95854063  0.77139205  0.40395369     0.36700
C1196       C  0.89256051  0.73034808  0.48297557     0.40000
N1197       N  0.04738775  0.68732313  0.45096979    -0.38100
N1198       N  0.98828499  0.72744745  0.48162373    -0.39700
N1199       N  0.97947261  0.67862790  0.33516015    -0.37400
N1200       N  0.91990867  0.71869546  0.36637512    -0.39800
N1201       N  0.92706946  0.67468739  0.46041441    -0.39600
N1202       N  0.88043093  0.72205170  0.49989888    -0.37200
N1203       N  0.91904604  0.82584427  0.42062275    -0.38300
N1204       N  0.97281251  0.77965923  0.38872957    -0.39900
C1205       C  0.78717982  0.86959904  0.43292385    -0.04900
C1206       C  0.79936469  0.89008774  0.41957048     0.09300
C1207       C  0.82668740  0.89260576  0.42000962    -0.02300
C1208       C  0.84188389  0.87552099  0.43508997    -0.00500
C1209       C  0.82969508  0.85561231  0.44993448    -0.04100
C1210       C  0.80213476  0.85216767  0.44772126     0.02900
C1211       C  0.78301145  0.90985770  0.40618507     0.09700
C1212       C  0.83904921  0.91324131  0.40524774     0.35600
C1213       C  0.78836795  0.83177196  0.46164344     0.39000
C1214       C  0.77743381  0.93370271  0.41846670    -0.04500
C1215       C  0.76041708  0.95170106  0.40681555     0.02700
C1216       C  0.74863726  0.94566726  0.38302762    -0.04100
C1217       C  0.75434060  0.92182942  0.37070449    -0.00300
C1218       C  0.77167931  0.90404465  0.38219353    -0.02900
C1219       C  0.78886467  0.93941146  0.44334837     0.36400
C1220       C  0.74145257  0.91507072  0.34677965     0.40000
C1221       C  0.75545065  0.97660654  0.41905376     0.39100
C1222       C  0.77750841  0.87950699  0.36964284     0.36000
C1223       C  0.75891868  0.86716799  0.43226032     0.36700
C1224       C  0.87001570  0.87876730  0.43507089     0.40000
N1225       N  0.75154325  0.99649210  0.42877685    -0.38100
N1226       N  0.79802939  0.94383235  0.46319559    -0.39700
N1227       N  0.73104582  0.90970548  0.32777012    -0.37400
N1228       N  0.78212329  0.85989950  0.35968153    -0.39800
N1229       N  0.84881705  0.92974335  0.39347712    -0.39600
N1230       N  0.89242333  0.88162769  0.43500138    -0.37200
N1231       N  0.77717259  0.81572498  0.47279136    -0.38300
N1232       N  0.73641624  0.86529780  0.43174550    -0.39900
C1233       C  0.90280627  0.75733325  0.60434645    -0.04900
C1234       C  0.92863970  0.74844846  0.60146024     0.09300
C1235       C  0.94203945  0.75237062  0.57806392    -0.02300
C1236       C  0.92980553  0.76579133  0.55775791    -0.00500
C1237       C  0.90399668  0.77495621  0.56073552    -0.04100
C1238       C  0.89028459  0.77008376  0.58384185     0.02900
C1239       C  0.94210402  0.73559009  0.62338768     0.09700
C1240       C  0.96844509  0.74263282  0.57503181     0.35600
C1241       C  0.86347122  0.77868922  0.58681176     0.39000
C1242       C  0.93696914  0.70924293  0.62927748    -0.04500
C1243       C  0.95041570  0.69695977  0.64954925     0.02700
C1244       C  0.96928727  0.71095643  0.66372432    -0.04100
C1245       C  0.97408027  0.73750798  0.65798066    -0.00300
C1246       C  0.96024237  0.74983503  0.63806387    -0.02900
C1247       C  0.91796931  0.69480609  0.61432302     0.36400
C1248       C  0.99414911  0.75189230  0.67162267     0.40000
C1249       C  0.94447159  0.67008807  0.65609412     0.39100
C1250       C  0.96475826  0.77720779  0.63247927     0.36000
C1251       C  0.88938117  0.75392104  0.62868906     0.36700
C1252       C  0.94343572  0.76933082  0.53352630     0.40000
N1253       N  0.93970611  0.64868696  0.66136439    -0.38100
N1254       N  0.90273745  0.68336820  0.60239655    -0.39700
N1255       N  0.01020633  0.76334870  0.68243601    -0.37400
N1256       N  0.96828387  0.79902403  0.62799714    -0.39800
N1257       N  0.98952073  0.73486301  0.57274183    -0.39600
N1258       N  0.95426209  0.77208984  0.51418347    -0.37200
N1259       N  0.84206293  0.78549387  0.58911014    -0.38300
N1260       N  0.87873057  0.75128793  0.64813739    -0.39900
C1261       C  0.09291158  0.73574832  0.64362634    -0.04900
C1262       C  0.11393573  0.74589601  0.65799175     0.09300
C1263       C  0.11445811  0.74283570  0.68493305    -0.02300
C1264       C  0.09392414  0.72970650  0.69751310    -0.00500
C1265       C  0.07349927  0.71851127  0.68298522    -0.04100
C1266       C  0.07298655  0.72170155  0.65600953     0.02900
C1267       C  0.13514415  0.76020057  0.64434246     0.09700
C1268       C  0.13628683  0.75292715  0.69960804     0.35600
C1269       C  0.05150413  0.71126813  0.64098640     0.39000
C1270       C  0.13583272  0.78765551  0.64488824    -0.04500
C1271       C  0.15319830  0.80131037  0.62878054     0.02700
C1272       C  0.16900241  0.78758214  0.61109891    -0.04100
C1273       C  0.16907609  0.75997830  0.61143474    -0.00300
C1274       C  0.15267903  0.74639028  0.62854795    -0.02900
C1275       C  0.11785991  0.80184473  0.66124179     0.36400
C1276       C  0.18448501  0.74540843  0.59297978     0.40000
C1277       C  0.15482374  0.82949087  0.63050589     0.39100
C1278       C  0.15305259  0.71810480  0.62926773     0.36000
C1279       C  0.09163578  0.74011719  0.61606795     0.36700
C1280       C  0.09411042  0.72730902  0.72530683     0.40000
N1281       N  0.15622825  0.85195072  0.63197240    -0.38100
N1282       N  0.10345783  0.81307134  0.67429408    -0.39700
N1283       N  0.19661141  0.73376310  0.57815869    -0.37400
N1284       N  0.15335656  0.69556022  0.62990786    -0.39800
N1285       N  0.15371210  0.76096661  0.71130698    -0.39600
N1286       N  0.09415476  0.72549753  0.74749102    -0.37200
N1287       N  0.03442527  0.70292720  0.62899687    -0.38300
N1288       N  0.09065812  0.74367330  0.59411153    -0.39900
C1289       C  0.11067803  0.63056961  0.77399173    -0.04900
C1290       C  0.10153746  0.61726658  0.79596000     0.09300
C1291       C  0.07537067  0.62013266  0.80391008    -0.02300
C1292       C  0.05795660  0.63497887  0.78892311    -0.00500
C1293       C  0.06658356  0.64609604  0.76559632    -0.04100
C1294       C  0.09309768  0.64450912  0.75848425     0.02900
C1295       C  0.11848174  0.59726261  0.80817497     0.09700
C1296       C  0.06612060  0.60669981  0.82671569     0.35600
C1297       C  0.10216860  0.65658234  0.73485474     0.39000
C1298       C  0.13176654  0.60248381  0.83131153    -0.04500
C1299       C  0.14863821  0.58358716  0.84187764     0.02700
C1300       C  0.15215961  0.55948451  0.82923044    -0.04100
C1301       C  0.13841155  0.55418854  0.80628883    -0.00300
C1302       C  0.12169594  0.57306278  0.79578254    -0.02900
C1303       C  0.12816532  0.62734712  0.84401547     0.36400
C1304       C  0.14063463  0.52894658  0.79388994     0.40000
C1305       C  0.16287654  0.58923201  0.86530939     0.39100
C1306       C  0.10769194  0.56759304  0.77212722     0.36000
C1307       C  0.13799922  0.62888154  0.76682546     0.36700
C1308       C  0.03088620  0.63757981  0.79671023     0.40000
N1309       N  0.17426591  0.59377443  0.88397896    -0.38100
N1310       N  0.12515069  0.64717900  0.85413983    -0.39700
N1311       N  0.14227913  0.50883650  0.78399211    -0.37400
N1312       N  0.09660036  0.56333355  0.75322385    -0.39800
N1313       N  0.05874190  0.59595787  0.84490461    -0.39600
N1314       N  0.00930665  0.63976033  0.80292085    -0.37200
N1315       N  0.10951311  0.66600174  0.71595544    -0.38300
N1316       N  0.15981102  0.62751847  0.76121255    -0.39900
C1317       C  0.76858604  0.89952422  0.62198198    -0.04900
C1318       C  0.79353096  0.90693322  0.61301497     0.09300
C1319       C  0.80489330  0.93041254  0.62157364    -0.02300
C1320       C  0.79128813  0.94655070  0.63884682    -0.00500
C1321       C  0.76599072  0.93949877  0.64729132    -0.04100
C1322       C  0.75478702  0.91582509  0.63897362     0.02900
C1323       C  0.80736313  0.89054151  0.59364670     0.09700
C1324       C  0.83034280  0.93827846  0.61203841     0.35600
C1325       C  0.72927415  0.90795852  0.64830898     0.39000
C1326       C  0.79852872  0.89019054  0.56796891    -0.04500
C1327       C  0.81125251  0.87457868  0.54964849     0.02700
C1328       C  0.83320446  0.85965530  0.55675563    -0.04100
C1329       C  0.84283752  0.86095755  0.58213666    -0.00300
C1330       C  0.82957824  0.87591152  0.60070921    -0.02900
C1331       C  0.77657129  0.90629439  0.56029926     0.36400
C1332       C  0.86657852  0.84726154  0.58909359     0.40000
C1333       C  0.80243135  0.87499317  0.52321003     0.39100
C1334       C  0.83871226  0.87625454  0.62709155     0.36000
C1335       C  0.75705322  0.87519706  0.61347666     0.36700
C1336       C  0.80293190  0.97099699  0.64694081     0.40000
N1337       N  0.79511910  0.87601566  0.50221407    -0.38100
N1338       N  0.75906598  0.91911075  0.55415988    -0.39700
N1339       N  0.88569291  0.83669332  0.59472578    -0.37400
N1340       N  0.84598709  0.87663492  0.64814554    -0.39800
N1341       N  0.85067551  0.94445265  0.60447426    -0.39600
N1342       N  0.81223362  0.99051261  0.65328419    -0.37200
N1343       N  0.70894397  0.90170009  0.65581387    -0.38300
N1344       N  0.74784326  0.85585192  0.60654278    -0.39900
C1345       C  0.65583826  0.12762233  0.78226564    -0.04900
C1346       C  0.64604717  0.10296661  0.77514233     0.09300
C1347       C  0.62031888  0.09586079  0.78173796    -0.02300
C1348       C  0.60438858  0.11329509  0.79544514    -0.00500
C1349       C  0.61412270  0.13800976  0.80265199    -0.04100
C1350       C  0.63985569  0.14519963  0.79592654     0.02900
C1351       C  0.66256768  0.08424941  0.76045544     0.09700
C1352       C  0.61027818  0.07051363  0.77432497     0.35600
C1353       C  0.65013474  0.17029359  0.80378330     0.39000
C1354       C  0.67561629  0.06395652  0.77345581    -0.04500
C1355       C  0.68885787  0.04455494  0.75943433     0.02700
C1356       C  0.68928824  0.04549989  0.73222348    -0.04100
C1357       C  0.67696234  0.06648496  0.71931851    -0.00300
C1358       C  0.66348632  0.08564890  0.73342328    -0.02900
C1359       C  0.67491264  0.06283614  0.80131806     0.36400
C1360       C  0.67870832  0.06888065  0.69156455     0.40000
C1361       C  0.70110246  0.02311939  0.77310003     0.39100
C1362       C  0.65012692  0.10665157  0.72013841     0.36000
C1363       C  0.68245636  0.13467235  0.77580436     0.36700
C1364       C  0.57770212  0.10598283  0.80152321     0.40000
N1365       N  0.71087211  0.00603533  0.78401020    -0.38100
N1366       N  0.67430416  0.06199870  0.82354152    -0.39700
N1367       N  0.68019738  0.07084902  0.66944511    -0.37400
N1368       N  0.63942694  0.12341555  0.70960628    -0.39800
N1369       N  0.60238945  0.05025347  0.76842086    -0.39600
N1370       N  0.55644678  0.10008711  0.80632642    -0.37200
N1371       N  0.65829486  0.19031571  0.81011656    -0.38300
N1372       N  0.70372113  0.14023985  0.77067632    -0.39900
C1373       C  0.77810082  0.06198992  0.60881739    -0.04900
C1374       C  0.77921875  0.08766551  0.61842770     0.09300
C1375       C  0.77026657  0.09319153  0.64346947    -0.02300
C1376       C  0.76039678  0.07296478  0.65897846    -0.00500
C1377       C  0.75861903  0.04746997  0.64903334    -0.04100
C1378       C  0.76707431  0.04206521  0.62382045     0.02900
C1379       C  0.78943314  0.10880320  0.60165838     0.09700
C1380       C  0.77079467  0.11972311  0.65302108     0.35600
C1381       C  0.76422483  0.01607811  0.61318602     0.39000
C1382       C  0.77451253  0.11734063  0.58047019    -0.04500
C1383       C  0.78564188  0.13421914  0.56218489     0.02700
C1384       C  0.81150426  0.14313604  0.56550480    -0.04100
C1385       C  0.82569548  0.13610296  0.58773099    -0.00300
C1386       C  0.81479026  0.11865227  0.60562420    -0.02900
C1387       C  0.74795166  0.10806926  0.57717098     0.36400
C1388       C  0.85138462  0.14708268  0.59236068     0.40000
C1389       C  0.77097679  0.14114949  0.53930409     0.39100
C1390       C  0.82987766  0.11025291  0.62773289     0.36000
C1391       C  0.78837808  0.05611254  0.58347398     0.36700
C1392       C  0.75110714  0.07853668  0.68474464     0.40000
N1393       N  0.75930906  0.14656692  0.52101013    -0.38100
N1394       N  0.72680310  0.10059504  0.57460418    -0.39700
N1395       N  0.87179535  0.15597437  0.59607571    -0.37400
N1396       N  0.84183319  0.10358199  0.64543330    -0.39800
N1397       N  0.77122530  0.14089439  0.66062581    -0.39600
N1398       N  0.74369294  0.08297946  0.70529164    -0.37200
N1399       N  0.76172740  0.99548298  0.60450378    -0.38300
N1400       N  0.79663915  0.05148339  0.56328601    -0.39900
C1401       C  0.65092711  0.88047077  0.80654400    -0.04900
C1402       C  0.64952114  0.88021790  0.77953501     0.09300
C1403       C  0.63110000  0.86432239  0.76704524    -0.02300
C1404       C  0.61272537  0.85018791  0.78156043    -0.00500
C1405       C  0.61315694  0.85133023  0.80879927    -0.04100
C1406       C  0.63295792  0.86590853  0.82121561     0.02900
C1407       C  0.66481432  0.89940410  0.76424348     0.09700
C1408       C  0.63048410  0.86340191  0.73918509     0.35600
C1409       C  0.63503687  0.86595496  0.84897197     0.39000
C1410       C  0.68869080  0.89234631  0.75271433    -0.04500
C1411       C  0.70224849  0.91054623  0.73736056     0.02700
C1412       C  0.69182920  0.93572063  0.73359976    -0.04100
C1413       C  0.66790279  0.94269140  0.74512092    -0.00300
C1414       C  0.65449223  0.92459383  0.76050155    -0.02900
C1415       C  0.69901253  0.86631054  0.75642911     0.36400
C1416       C  0.65710896  0.96858322  0.74129647     0.40000
C1417       C  0.72626748  0.90309490  0.72457832     0.39100
C1418       C  0.62988010  0.93178556  0.77235652     0.36000
C1419       C  0.67049959  0.89641039  0.81918318     0.36700
C1420       C  0.59232282  0.83598708  0.76814626     0.40000
N1421       N  0.74535387  0.89713962  0.71424415    -0.38100
N1422       N  0.70719789  0.84550386  0.75939403    -0.39700
N1423       N  0.64839726  0.98915966  0.73821159    -0.37400
N1424       N  0.61028446  0.93750556  0.78185437    -0.39800
N1425       N  0.63011251  0.86260466  0.71693362    -0.39600
N1426       N  0.57606713  0.82478491  0.75743371    -0.37200
N1427       N  0.63696804  0.86615062  0.87115582    -0.38300
N1428       N  0.68609716  0.90915945  0.82914059    -0.39900
C1429       C  0.46310216  0.86425524  0.78208719    -0.04900
C1430       C  0.47138453  0.88916076  0.77393615     0.09300
C1431       C  0.49746150  0.89703045  0.77772736    -0.02300
C1432       C  0.51496309  0.88044944  0.79060465    -0.00500
C1433       C  0.50637262  0.85600884  0.79988239    -0.04100
C1434       C  0.48061439  0.84764279  0.79508484     0.02900
C1435       C  0.45256648  0.90765579  0.76195207     0.09700
C1436       C  0.50603819  0.92251127  0.76894080     0.35600
C1437       C  0.47180350  0.82256623  0.80465215     0.39000
C1438       C  0.43704055  0.92370823  0.77759787    -0.04500
C1439       C  0.42079342  0.94278904  0.76645458     0.02700
C1440       C  0.42050600  0.94649565  0.73928149    -0.04100
C1441       C  0.43617035  0.92987485  0.72372949    -0.00300
C1442       C  0.45169292  0.91033877  0.73509493    -0.02900
C1443       C  0.43840988  0.92100225  0.80536875     0.36400
C1444       C  0.43702952  0.93272772  0.69599138     0.40000
C1445       C  0.40538986  0.95909068  0.78346175     0.39100
C1446       C  0.46719990  0.89302688  0.71919224     0.36000
C1447       C  0.43640333  0.85608857  0.77762087     0.36700
C1448       C  0.54181349  0.88862492  0.79445330     0.40000
N1449       N  0.39321761  0.97202680  0.79716681    -0.38100
N1450       N  0.43956380  0.91889495  0.82749250    -0.39700
N1451       N  0.43833052  0.93498456  0.67388863    -0.37400
N1452       N  0.47953808  0.87911412  0.70662327    -0.39800
N1453       N  0.51280531  0.94283917  0.76191246    -0.39600
N1454       N  0.56319834  0.89521607  0.79744426    -0.37200
N1455       N  0.46484467  0.80255436  0.81234933    -0.38300
N1456       N  0.41506957  0.84964944  0.77403489    -0.39900
C1457       C  0.41695840  0.72824953  0.92194848    -0.04900
C1458       C  0.43665407  0.74467740  0.93174156     0.09300
C1459       C  0.43963424  0.74763850  0.95851259    -0.02300
C1460       C  0.42382070  0.73322614  0.97549416    -0.00500
C1461       C  0.40432294  0.71653459  0.96573424    -0.04100
C1462       C  0.40042524  0.71459718  0.93896956     0.02900
C1463       C  0.45585941  0.75725058  0.91412034     0.09700
C1464       C  0.45955491  0.76498959  0.96851269     0.35600
C1465       C  0.37973758  0.69819682  0.92899032     0.39000
C1466       C  0.45141345  0.78254100  0.90444639    -0.04500
C1467       C  0.47091531  0.79527792  0.88992656     0.02700
C1468       C  0.49486488  0.78257536  0.88493356    -0.04100
C1469       C  0.49885772  0.75690079  0.89404794    -0.00300
C1470       C  0.47945744  0.74433313  0.90864507    -0.02900
C1471       C  0.42683873  0.79547482  0.90973571     0.36400
C1472       C  0.52338845  0.74361327  0.88945509     0.40000
C1473       C  0.46615893  0.82117491  0.87976826     0.39100
C1474       C  0.48398459  0.71829652  0.91865571     0.36000
C1475       C  0.41443084  0.72468062  0.89442836     0.36700
C1476       C  0.42815673  0.73510139  0.00297616     0.40000
N1477       N  0.46234100  0.84184688  0.87161548    -0.38100
N1478       N  0.40718132  0.80566311  0.91397594    -0.39700
N1479       N  0.54278083  0.73269862  0.88596825    -0.37400
N1480       N  0.48761551  0.69755107  0.92669892    -0.39800
N1481       N  0.47542685  0.77889215  0.97638902    -0.39600
N1482       N  0.43205976  0.73672224  0.02481673    -0.37200
N1483       N  0.36306633  0.68534051  0.92099142    -0.38300
N1484       N  0.41256883  0.72168796  0.87246359    -0.39900
C1485       C  0.62850541  0.78285230  0.93713780    -0.04900
C1486       C  0.63049007  0.75557779  0.93707645     0.09300
C1487       C  0.62116076  0.74121346  0.91600435    -0.02300
C1488       C  0.60869252  0.75406479  0.89540528    -0.00500
C1489       C  0.60364289  0.78130513  0.89675088    -0.04100
C1490       C  0.61483150  0.79574731  0.91742938     0.02900
C1491       C  0.64219004  0.74208251  0.95963366     0.09700
C1492       C  0.62394986  0.71307490  0.91589787     0.35600
C1493       C  0.61258903  0.82390232  0.91894819     0.39000
C1494       C  0.62673359  0.73693222  0.98151123    -0.04500
C1495       C  0.63805623  0.72561003  0.00352059     0.02700
C1496       C  0.66492919  0.71953329  0.00368422    -0.04100
C1497       C  0.68034456  0.72466799  0.98166226    -0.00300
C1498       C  0.66894083  0.73586721  0.95966809    -0.02900
C1499       C  0.59922765  0.74365609  0.98138077     0.36400
C1500       C  0.70787033  0.71794973  0.98134702     0.40000
C1501       C  0.62228768  0.72117962  0.02628459     0.39100
C1502       C  0.68469423  0.74120342  0.93707935     0.36000
C1503       C  0.64044392  0.79765065  0.95783096     0.36700
C1504       C  0.60143482  0.73888176  0.87301915     0.40000
N1505       N  0.60972072  0.71774377  0.04447667    -0.38100
N1506       N  0.57732032  0.74911255  0.98117138    -0.39700
N1507       N  0.72982156  0.71266915  0.98110030    -0.37400
N1508       N  0.69719848  0.74543949  0.91901318    -0.39800
N1509       N  0.62608928  0.69061329  0.91593312    -0.39600
N1510       N  0.59598123  0.72662422  0.85516850    -0.37200
N1511       N  0.61071184  0.84632562  0.92062874    -0.38300
N1512       N  0.65011698  0.80939186  0.97422249    -0.39900
C1513       C  0.76613898  0.64126364  0.15578044    -0.04900
C1514       C  0.77394471  0.61588961  0.14887221     0.09300
C1515       C  0.76543550  0.60495236  0.12547776    -0.02300
C1516       C  0.74916063  0.61932133  0.10897973    -0.00500
C1517       C  0.74127686  0.64475965  0.11582866    -0.04100
C1518       C  0.74985974  0.65575639  0.13922406     0.02900
C1519       C  0.79074933  0.59996705  0.16617854     0.09700
C1520       C  0.77371134  0.57889465  0.11832079     0.35600
C1521       C  0.74152063  0.68173909  0.14644246     0.39000
C1522       C  0.77924902  0.58049840  0.18154820    -0.04500
C1523       C  0.79496699  0.56151514  0.19347083     0.02700
C1524       C  0.82242338  0.56199670  0.19008656    -0.04100
C1525       C  0.83397888  0.58309699  0.17668497    -0.00300
C1526       C  0.81812763  0.60193008  0.16459831    -0.02900
C1527       C  0.75104048  0.57936810  0.18403968     0.36400
C1528       C  0.86216234  0.58561844  0.17549087     0.40000
C1529       C  0.78247593  0.54088055  0.20803735     0.39100
C1530       C  0.82987083  0.62283041  0.14976284     0.36000
C1531       C  0.77482503  0.65233351  0.17992246     0.36700
C1532       C  0.74148347  0.60824807  0.08444348     0.40000
N1533       N  0.77216852  0.52468458  0.21975549    -0.38100
N1534       N  0.72855813  0.57849736  0.18595336    -0.39700
N1535       N  0.88463854  0.58766214  0.17465509    -0.37400
N1536       N  0.83918006  0.63957380  0.13795742    -0.39800
N1537       N  0.78035371  0.55810485  0.11274212    -0.39600
N1538       N  0.73548622  0.59935252  0.06489628    -0.37200
N1539       N  0.73479884  0.70247368  0.15213525    -0.38300
N1540       N  0.78179204  0.66118135  0.19917429    -0.39900
C1541       C  0.63063663  0.76108889  0.12384722    -0.04900
C1542       C  0.62462113  0.75012672  0.14804548     0.09300
C1543       C  0.63657437  0.72666804  0.15589510    -0.02300
C1544       C  0.65341321  0.71343506  0.13899580    -0.00500
C1545       C  0.65890409  0.72409170  0.11454350    -0.04100
C1546       C  0.64797112  0.74820569  0.10720657     0.02900
C1547       C  0.60388567  0.76219088  0.16414579     0.09700
C1548       C  0.63105702  0.71596243  0.18115426     0.35600
C1549       C  0.65338086  0.75903806  0.08195013     0.39000
C1550       C  0.57863538  0.75119245  0.16432165    -0.04500
C1551       C  0.55825980  0.76374032  0.17749490     0.02700
C1552       C  0.56302939  0.78751921  0.19023451    -0.04100
C1553       C  0.58834390  0.79841094  0.19028134    -0.00300
C1554       C  0.60886571  0.78547244  0.17764135    -0.02900
C1555       C  0.57352196  0.72723780  0.15041141     0.36400
C1556       C  0.59326286  0.82293635  0.20325399     0.40000
C1557       C  0.53212061  0.75281743  0.17682741     0.39100
C1558       C  0.63510398  0.79606475  0.17842524     0.36000
C1559       C  0.61812012  0.78507841  0.11567467     0.36700
C1560       C  0.66489814  0.68876088  0.14663307     0.40000
N1561       N  0.51131417  0.74405814  0.17617651    -0.38100
N1562       N  0.56954970  0.70807922  0.13938134    -0.39700
N1563       N  0.59718693  0.84257333  0.21345802    -0.37400
N1564       N  0.65605599  0.80446010  0.17913289    -0.39800
N1565       N  0.62660537  0.70747019  0.20130966    -0.39600
N1566       N  0.67398116  0.66902433  0.15266915    -0.37200
N1567       N  0.65766112  0.76763588  0.06179973    -0.38300
N1568       N  0.60809201  0.80420979  0.10921992    -0.39900
C1569       C  0.88395039  0.57723803  0.78350262    -0.04900
C1570       C  0.90002124  0.59688771  0.79375318     0.09300
C1571       C  0.89922981  0.60255415  0.82025905    -0.02300
C1572       C  0.88331788  0.58761861  0.83670983    -0.00500
C1573       C  0.86869687  0.56662690  0.82676063    -0.04100
C1574       C  0.86844720  0.56191116  0.79995952     0.02900
C1575       C  0.91949460  0.61011039  0.77702535     0.09700
C1576       C  0.91562179  0.62300615  0.83065643     0.35600
C1577       C  0.85383417  0.54018029  0.78946738     0.39000
C1578       C  0.91373418  0.63439744  0.76572751    -0.04500
C1579       C  0.93291147  0.64749281  0.75124694     0.02700
C1580       C  0.95787316  0.63625838  0.74808027    -0.04100
C1581       C  0.96308941  0.61122351  0.75818443    -0.00300
C1582       C  0.94396790  0.59827612  0.77283568    -0.02900
C1583       C  0.88811866  0.64588261  0.76917847     0.36400
C1584       C  0.98840434  0.59912854  0.75436702     0.40000
C1585       C  0.92679420  0.67220782  0.73905602     0.39100
C1586       C  0.94960758  0.57301417  0.78413364     0.36000
C1587       C  0.88429010  0.57211059  0.75606763     0.36700
C1588       C  0.88208530  0.59376435  0.86392524     0.40000
N1589       N  0.92196062  0.69185572  0.72916606    -0.38100
N1590       N  0.86765759  0.65498263  0.77192512    -0.39700
N1591       N  0.00853674  0.58942331  0.75127404    -0.37400
N1592       N  0.95406769  0.55286997  0.79317447    -0.39800
N1593       N  0.92881756  0.63929053  0.83893603    -0.39600
N1594       N  0.88095768  0.59866626  0.88557543    -0.37200
N1595       N  0.84224934  0.52277195  0.78106337    -0.38300
N1596       N  0.88460433  0.56808107  0.73421608    -0.39900
C1597       C  0.74237842  0.61418128  0.97369338    -0.04900
C1598       C  0.76972450  0.61222092  0.97588733     0.09300
C1599       C  0.78303293  0.62632739  0.99503796    -0.02300
C1600       C  0.76894678  0.64164342  0.01264315    -0.00500
C1601       C  0.74149564  0.64385064  0.01038988    -0.04100
C1602       C  0.72838217  0.63058198  0.99035879     0.02900
C1603       C  0.78448143  0.59513708  0.95794658     0.09700
C1604       C  0.81126578  0.62485518  0.99669642     0.35600
C1605       C  0.70060603  0.63438291  0.98624358     0.39000
C1606       C  0.78874602  0.60322658  0.93236246    -0.04500
C1607       C  0.80144995  0.58652933  0.91500749     0.02700
C1608       C  0.80988426  0.56169547  0.92320520    -0.04100
C1609       C  0.80650935  0.55396932  0.94906275    -0.00300
C1610       C  0.79361021  0.57061801  0.96637455    -0.02900
C1611       C  0.77967384  0.62859826  0.92384342     0.36400
C1612       C  0.81535337  0.52852218  0.95763200     0.40000
C1613       C  0.80626340  0.59503294  0.88879962     0.39100
C1614       C  0.78900081  0.56228773  0.99266470     0.36000
C1615       C  0.72863799  0.59891393  0.95453304     0.36700
C1616       C  0.78270239  0.65414319  0.03364922     0.40000
N1617       N  0.81024708  0.60176281  0.86791190    -0.38100
N1618       N  0.77228154  0.64877641  0.91705540    -0.39700
N1619       N  0.82237328  0.50824511  0.96453083    -0.37400
N1620       N  0.78528674  0.55573845  0.01365651    -0.39800
N1621       N  0.83377407  0.62366592  0.99795959    -0.39600
N1622       N  0.79366212  0.66404257  0.05046202    -0.37200
N1623       N  0.67851770  0.63754918  0.98284142    -0.38300
N1624       N  0.71772091  0.58659956  0.93932919    -0.39900
C1625       C  0.77510991  0.44171040  0.94700505    -0.04900
C1626       C  0.78729239  0.41723156  0.94994186     0.09300
C1627       C  0.81031385  0.41150096  0.93619982    -0.02300
C1628       C  0.82101337  0.43018796  0.91934754    -0.00500
C1629       C  0.80840364  0.45441971  0.91590924    -0.04100
C1630       C  0.78539090  0.46011961  0.92973573     0.02900
C1631       C  0.77498232  0.39725041  0.96681526     0.09700
C1632       C  0.82279620  0.38632200  0.93927381     0.35600
C1633       C  0.77257887  0.48518133  0.92673276     0.39000
C1634       C  0.75155139  0.38523402  0.95892703    -0.04500
C1635       C  0.73804390  0.36870205  0.97587990     0.02700
C1636       C  0.74815655  0.36379970  0.00067167    -0.04100
C1637       C  0.77208365  0.37507213  0.00825517    -0.00300
C1638       C  0.78550007  0.39179863  0.99130489    -0.02900
C1639       C  0.74109306  0.39038144  0.93348440     0.36400
C1640       C  0.78210073  0.37070254  0.03400040     0.40000
C1641       C  0.71370125  0.35676499  0.96776316     0.39100
C1642       C  0.80973232  0.40395941  0.99929104     0.36000
C1643       C  0.75199023  0.44796575  0.96192001     0.36700
C1644       C  0.84450568  0.42417589  0.90494613     0.40000
N1645       N  0.69425532  0.34733518  0.96132099    -0.38100
N1646       N  0.73272993  0.39464534  0.91324666    -0.39700
N1647       N  0.78994525  0.36724393  0.05458543    -0.37400
N1648       N  0.82915468  0.41352164  0.00559649    -0.39800
N1649       N  0.83279685  0.36626756  0.94186997    -0.39600
N1650       N  0.86322633  0.41940645  0.89343567    -0.37200
N1651       N  0.76229983  0.50512553  0.92435533    -0.38300
N1652       N  0.73354831  0.45287254  0.97380143    -0.39900
C1653       C  0.91505470  0.38875677  0.77726952    -0.04900
C1654       C  0.90561842  0.41145213  0.76526210     0.09300
C1655       C  0.91220124  0.41674386  0.73953516    -0.02300
C1656       C  0.92965075  0.40028567  0.72624993    -0.00500
C1657       C  0.94112856  0.37841158  0.73889552    -0.04100
C1658       C  0.93269961  0.37232076  0.76434989     0.02900
C1659       C  0.89112392  0.43101315  0.78092124     0.09700
C1660       C  0.90152207  0.43971405  0.72702899     0.35600
C1661       C  0.94259836  0.34979631  0.77818518     0.39000
C1662       C  0.90459940  0.45287912  0.79054898    -0.04500
C1663       C  0.89262619  0.46919831  0.80873272     0.02700
C1664       C  0.86727282  0.46337429  0.81789401    -0.04100
C1665       C  0.85324761  0.44228511  0.80717311    -0.00300
C1666       C  0.86509833  0.42631931  0.78848814    -0.02900
C1667       C  0.93112458  0.45820188  0.78221845     0.36400
C1668       C  0.82715439  0.43617882  0.81619871     0.40000
C1669       C  0.90636609  0.49222469  0.81767902     0.39100
C1670       C  0.85083193  0.40465255  0.77743686     0.36000
C1671       C  0.90731745  0.38288402  0.80353868     0.36700
C1672       C  0.93565555  0.40642780  0.69966096     0.40000
N1673       N  0.91728153  0.51059045  0.82480740    -0.38100
N1674       N  0.95223015  0.46247131  0.77548567    -0.39700
N1675       N  0.80635578  0.43128855  0.82343870    -0.37400
N1676       N  0.83945986  0.38738001  0.76856962    -0.39800
N1677       N  0.89309127  0.45810207  0.71715120    -0.39600
N1678       N  0.94032216  0.41169708  0.67850388    -0.37200
N1679       N  0.95028799  0.33190937  0.78945715    -0.38300
N1680       N  0.90098774  0.37822418  0.82440933    -0.39900
loop_ 
_geom_bond_atom_site_label_1 
_geom_bond_atom_site_label_2 
_geom_bond_distance 
_geom_bond_site_symmetry_2 
_ccdc_geom_bond_type 
O1           Ni9   1.906       .  S
O1           C11   1.279       .  A
O2           Ni9   1.908       .  S
O2           C12   1.280       .  A
O3           Ni9   1.912       .  S
O3           C13   1.279       .  A
O4           Ni9   1.910       .  S
O4           C14   1.281       .  A
O5          Ni10   1.911       .  S
O5           C14   1.280       .  A
O6          Ni10   1.908       .  S
O6           C13   1.280       .  A
O7          Ni10   1.910       .  S
O7           C12   1.279       .  A
O8          Ni10   1.911       .  S
O8           C11   1.280       .  A
Ni9         Ni10   2.393       .  S
C11        C1629   1.473       .  S
C12        C1573   1.475       .  S
C13        C1608   1.472       .  S
C14        C1664   1.481       .  S
O15         Ni23   1.915       .  S
O15          C25   1.281       .  A
O16         Ni23   1.912       .  S
O16          C26   1.280       .  A
O17         Ni23   1.907       .  S
O17          C27   1.279       .  A
O18         Ni23   1.905       .  S
O18          C28   1.279       .  A
O19         Ni24   1.913       .  S
O19          C28   1.281       .  A
O20         Ni24   1.913       .  S
O20          C27   1.280       .  A
O21         Ni24   1.911       .  S
O21          C26   1.279       .  A
O22         Ni24   1.907       .  S
O22          C25   1.279       .  A
Ni23        Ni24   2.392       .  S
C25        C1496   1.477       .  S
C26        C1517   1.476       .  S
C27        C1545   1.471       .  S
C28        C1601   1.482       .  S
O29         Ni37   1.904       .  S
O29          C39   1.279       .  A
O30         Ni37   1.909       .  S
O30          C40   1.279       .  A
O31         Ni37   1.926       .  S
O31          C41   1.283       .  A
O32         Ni37   1.923       .  S
O32          C42   1.283       .  A
O33         Ni38   1.898       .  S
O33          C42   1.277       .  A
O34         Ni38   1.896       .  S
O34          C41   1.276       .  A
O35         Ni38   1.921       .  S
O35          C40   1.282       .  A
O36         Ni38   1.920       .  S
O36          C39   1.282       .  A
Ni37        Ni38   2.386       .  S
C39        C1405   1.486       .  S
C40        C1468   1.481       .  S
C41        C1433   1.473       .  S
C42        C1489   1.502       .  S
O43         Ni51   1.916       .  S
O43          C53   1.280       .  A
O44         Ni51   1.911   1_545  S
O44          C54   1.280       .  A
O45         Ni51   1.912   1_545  S
O45          C55   1.280       .  A
O46         Ni51   1.911       .  S
O46          C56   1.280       .  A
O47         Ni52   1.916       .  S
O47          C56   1.281       .  A
O48         Ni52   1.917   1_545  S
O48          C55   1.282       .  A
O49         Ni52   1.901   1_545  S
O49          C54   1.277       .  A
O50         Ni52   1.903       .  S
O50          C53   1.278       .  A
Ni51        Ni52   2.393       .  S
C53        C1412   1.470       .  S
C54        C1377   1.465       .  S
C55        C1356   1.486       .  S
C56        C1321   1.480       .  S
O57         Ni65   1.908   1_655  S
O57          C67   1.280       .  A
O58         Ni65   1.911       .  S
O58          C68   1.279       .  A
O59         Ni65   1.913       .  S
O59          C69   1.280       .  A
O60         Ni65   1.909   1_655  S
O60          C70   1.280       .  A
O61         Ni66   1.911   1_655  S
O61          C70   1.280       .  A
O62         Ni66   1.906       .  S
O62          C69   1.280       .  A
O63         Ni66   1.907       .  S
O63          C68   1.280       .  A
O64         Ni66   1.909   1_655  S
O64          C67   1.280       .  A
Ni65        Ni66   2.394       .  S
C67        C1244   1.476       .  S
C68        C1293   1.469       .  S
C69        C1265   1.476       .  S
C70        C1580   1.475       .  S
O71         Ni79   1.899       .  S
O71          C81   1.277       .  A
O72         Ni79   1.902       .  S
O72          C82   1.278       .  A
O73         Ni79   1.920       .  S
O73          C83   1.281       .  A
O74         Ni79   1.911       .  S
O74          C84   1.280       .  A
O75         Ni80   1.909       .  S
O75          C84   1.280       .  A
O76         Ni80   1.911       .  S
O76          C83   1.278       .  A
O77         Ni80   1.916       .  S
O77          C82   1.282       .  A
O78         Ni80   1.921       .  S
O78          C81   1.283       .  A
Ni79        Ni80   2.387       .  S
C81        C1209   1.500       .  S
C82        C1237   1.474       .  S
C83        C1328   1.475       .  S
C84        C1181   1.484       .  S
O85         Ni93   1.915       .  S
O85          C95   1.280       .  A
O86         Ni93   1.914       .  S
O86          C96   1.280       .  A
O87         Ni93   1.920       .  S
O87          C97   1.281       .  A
O88         Ni93   1.923       .  S
O88          C98   1.283       .  A
O89         Ni94   1.907       .  S
O89          C98   1.279       .  A
O90         Ni94   1.909       .  S
O90          C97   1.279       .  A
O91         Ni94   1.904       .  S
O91          C96   1.280       .  A
O92         Ni94   1.903       .  S
O92          C95   1.280       .  A
Ni93        Ni94   2.391       .  S
C95        C1104   1.475       .  S
C96        C1132   1.481       .  S
C97        C1349   1.479       .  S
C98        C1160   1.485       .  S
O99        Ni107   1.903       .  S
O99         C109   1.279       .  A
O100       Ni107   1.903       .  S
O100        C110   1.279       .  A
O101       Ni107   1.908       .  S
O101        C111   1.280       .  A
O102       Ni107   1.913       .  S
O102        C112   1.280       .  A
O103       Ni108   1.911       .  S
O103        C112   1.281       .  A
O104       Ni108   1.910       .  S
O104        C111   1.279       .  A
O105       Ni108   1.912       .  S
O105        C110   1.280       .  A
O106       Ni108   1.916       .  S
O106        C109   1.281       .  A
Ni107      Ni108   2.393       .  S
C109       C1076   1.477       .  S
C110       C1636   1.472       .  S
C111       C1125   1.470   1_554  S
C112       C1041   1.480       .  S
O113       Ni121   1.922       .  S
O113        C123   1.282       .  A
O114       Ni121   1.921       .  S
O114        C124   1.282       .  A
O115       Ni121   1.902       .  S
O115        C125   1.278       .  A
O116       Ni121   1.909       .  S
O116        C126   1.279       .  A
O117       Ni122   1.919       .  S
O117        C126   1.283       .  A
O118       Ni122   1.920       .  S
O118        C125   1.282       .  A
O119       Ni122   1.910       .  S
O119        C124   1.280       .  A
O120       Ni122   1.908       .  S
O120        C123   1.278       .  A
Ni121      Ni122   2.384       .  S
C123        C985   1.476       .  S
C124       C1048   1.506       .  S
C125       C1013   1.489       .  S
C126       C1524   1.487       .  S
O127       Ni135   1.904       .  S
O127        C137   1.278       .  A
O128       Ni135   1.907       .  S
O128        C138   1.279       .  A
O129       Ni135   1.918       .  S
O129        C139   1.282       .  A
O130       Ni135   1.918       .  S
O130        C140   1.282       .  A
O131       Ni136   1.911       .  S
O131        C140   1.280       .  A
O132       Ni136   1.911       .  S
O132        C139   1.280       .  A
O133       Ni136   1.913       .  S
O133        C138   1.280       .  A
O134       Ni136   1.913       .  S
O134        C137   1.280       .  A
Ni135      Ni136   2.391       .  S
C137       C1188   1.473       .  S
C138        C964   1.473       .  S
C139        C929   1.489       .  S
C140        C992   1.487       .  S
O141       Ni149   1.910       .  S
O141        C151   1.280       .  A
O142       Ni149   1.912       .  S
O142        C152   1.281       .  A
O143       Ni149   1.912       .  S
O143        C153   1.279       .  A
O144       Ni149   1.908       .  S
O144        C154   1.279       .  A
O145       Ni150   1.921       .  S
O145        C154   1.282       .  A
O146       Ni150   1.916       .  S
O146        C153   1.282       .  A
O147       Ni150   1.910       .  S
O147        C152   1.279       .  A
O148       Ni150   1.909       .  S
O148        C151   1.279       .  A
Ni149      Ni150   2.392       .  S
C151        C901   1.472       .  S
C152       C1272   1.482       .  S
C153        C880   1.478       .  S
C154        C936   1.480       .  S
O155       Ni163   1.914   1_565  S
O155        C165   1.281       .  A
O156       Ni163   1.907       .  S
O156        C166   1.280       .  A
O157       Ni163   1.910       .  S
O157        C167   1.278       .  A
O158       Ni163   1.919   1_565  S
O158        C168   1.282       .  A
O159       Ni164   1.911   1_565  S
O159        C168   1.279       .  A
O160       Ni164   1.916       .  S
O160        C167   1.280       .  A
O161       Ni164   1.908       .  S
O161        C166   1.280       .  A
O162       Ni164   1.910   1_565  S
O162        C165   1.280       .  A
Ni163      Ni164   2.383       .  S
C165       C1440   1.501       .  S
C166        C845   1.498       .  S
C167       C1097   1.473       .  S
C168        C873   1.486       .  S
O169       Ni177   1.907   1_545  S
O169        C179   1.279       .  A
O170       Ni177   1.906       .  S
O170        C180   1.279       .  A
O171       Ni177   1.916       .  S
O171        C181   1.282       .  A
O172       Ni177   1.915   1_545  S
O172        C182   1.281       .  A
O173       Ni178   1.907   1_545  S
O173        C182   1.279       .  A
O174       Ni178   1.907       .  S
O174        C181   1.279       .  A
O175       Ni178   1.913       .  S
O175        C180   1.280       .  A
O176       Ni178   1.913   1_545  S
O176        C179   1.280       .  A
Ni177      Ni178   2.393       .  S
C179        C824   1.469       .  S
C180       C1216   1.474       .  S
C181        C789   1.481       .  S
C182        C761   1.479       .  S
O183       Ni191   1.909       .  S
O183        C193   1.280       .  A
O184       Ni191   1.907       .  S
O184        C194   1.280       .  A
O185       Ni191   1.909       .  S
O185        C195   1.279       .  A
O186       Ni191   1.906       .  S
O186        C196   1.279       .  A
O187       Ni192   1.916       .  S
O187        C196   1.281       .  A
O188       Ni192   1.911       .  S
O188        C195   1.280       .  A
O189       Ni192   1.916       .  S
O189        C194   1.280       .  A
O190       Ni192   1.914       .  S
O190        C193   1.281       .  A
Ni191      Ni192   2.392       .  S
C193        C705   1.483       .  S
C194        C796   1.473       .  S
C195       C1552   1.471       .  S
C196        C733   1.478       .  S
O197       Ni205   1.912       .  S
O197        C207   1.281       .  A
O198       Ni205   1.911       .  S
O198        C208   1.281       .  A
O199       Ni205   1.907       .  S
O199        C209   1.277       .  A
O200       Ni205   1.906       .  S
O200        C210   1.279       .  A
O201       Ni206   1.917       .  S
O201        C210   1.280       .  A
O202       Ni206   1.917       .  S
O202        C209   1.281       .  A
O203       Ni206   1.908       .  S
O203        C208   1.279       .  A
O204       Ni206   1.905       .  S
O204        C207   1.279       .  A
Ni205      Ni206   2.387       .  S
C207        C677   1.502       .  S
C208       C1300   1.475       .  S
C209        C649   1.472       .  S
C210        C621   1.475       .  S
O211       Ni219   1.920   1_556  S
O211        C221   1.281       .  A
O212       Ni219   1.918       .  S
O212        C222   1.281       .  A
O213       Ni219   1.904       .  S
O213        C223   1.279       .  A
O214       Ni219   1.905   1_556  S
O214        C224   1.279       .  A
O215       Ni220   1.916   1_556  S
O215        C224   1.281       .  A
O216       Ni220   1.917       .  S
O216        C223   1.282       .  A
O217       Ni220   1.913       .  S
O217        C222   1.279       .  A
O218       Ni220   1.909   1_556  S
O218        C221   1.279       .  A
Ni219      Ni220   2.389       .  S
C221       C1461   1.473       .  S
C222        C600   1.476       .  S
C223        C712   1.495       .  S
C224        C656   1.480       .  S
O225       Ni233   1.919       .  S
O225        C235   1.281       .  A
O226       Ni233   1.919       .  S
O226        C236   1.282       .  A
O227       Ni233   1.913       .  S
O227        C237   1.280       .  A
O228       Ni233   1.914       .  S
O228        C238   1.281       .  A
O229       Ni234   1.914       .  S
O229        C238   1.281       .  A
O230       Ni234   1.913       .  S
O230        C237   1.282       .  A
O231       Ni234   1.909       .  S
O231        C236   1.280       .  A
O232       Ni234   1.906       .  S
O232        C235   1.279       .  A
Ni233      Ni234   2.385       .  S
C235        C572   1.474       .  S
C236        C593   1.508       .  S
C237        C957   1.485       .  S
C238        C537   1.486       .  S
O239       Ni247   1.910       .  S
O239        C249   1.280       .  A
O240       Ni247   1.905   1_556  S
O240        C250   1.278       .  A
O241       Ni247   1.921   1_556  S
O241        C251   1.282       .  A
O242       Ni247   1.924       .  S
O242        C252   1.281       .  A
O243       Ni248   1.904       .  S
O243        C252   1.278       .  A
O244       Ni248   1.910   1_556  S
O244        C251   1.280       .  A
O245       Ni248   1.915   1_556  S
O245        C250   1.282       .  A
O246       Ni248   1.917       .  S
O246        C249   1.281       .  A
Ni247      Ni248   2.382       .  S
C249        C509   1.480       .  S
C250        C684   1.504       .  S
C251       C1153   1.504       .  S
C252        C544   1.475       .  S
O253       Ni261   1.914       .  S
O253        C263   1.280       .  A
O254       Ni261   1.912       .  S
O254        C264   1.280       .  A
O255       Ni261   1.912       .  S
O255        C265   1.281       .  A
O256       Ni261   1.916       .  S
O256        C266   1.280       .  A
O257       Ni262   1.906       .  S
O257        C266   1.279       .  A
O258       Ni262   1.909       .  S
O258        C265   1.279       .  A
O259       Ni262   1.909       .  S
O259        C264   1.281       .  A
O260       Ni262   1.911       .  S
O260        C263   1.280       .  A
Ni261      Ni262   2.393       .  S
C263        C516   1.475       .  S
C264        C817   1.479       .  S
C265       C1069   1.473       .  S
C266        C481   1.473       .  S
O267       Ni275   1.912       .  S
O267        C277   1.280       .  A
O268       Ni275   1.913   1_455  S
O268        C278   1.279       .  A
O269       Ni275   1.916   1_455  S
O269        C279   1.281       .  A
O270       Ni275   1.915       .  S
O270        C280   1.281       .  A
O271       Ni276   1.911   1_655  S
O271        C280   1.280       .  A
O272       Ni276   1.910       .  S
O272        C279   1.280       .  A
O273       Ni276   1.915       .  S
O273        C278   1.281       .  A
O274       Ni276   1.916   1_655  S
O274        C277   1.281       .  A
Ni275      Ni276   2.384   1_655  S
C277       C1657   1.507       .  S
C278        C453   1.476       .  S
C279        C628   1.489       .  S
C280        C425   1.488       .  S
O281       Ni289   1.904       .  S
O281        C291   1.279       .  A
O282       Ni289   1.905       .  S
O282        C292   1.278       .  A
O283       Ni289   1.909       .  S
O283        C293   1.280       .  A
O284       Ni289   1.907       .  S
O284        C294   1.280       .  A
O285       Ni290   1.907       .  S
O285        C294   1.279       .  A
O286       Ni290   1.907       .  S
O286        C293   1.279       .  A
O287       Ni290   1.919       .  S
O287        C292   1.282       .  A
O288       Ni290   1.919       .  S
O288        C291   1.282       .  A
Ni289      Ni290   2.394       .  S
C291        C432   1.477       .  S
C292        C768   1.474       .  S
C293        C404   1.472       .  S
C294       C1384   1.472       .  S
O295       Ni303   1.904       .  S
O295        C305   1.279       .  A
O296       Ni303   1.904       .  S
O296        C306   1.279       .  A
O297       Ni303   1.908       .  S
O297        C307   1.280       .  A
O298       Ni303   1.913       .  S
O298        C308   1.281       .  A
O299       Ni304   1.915       .  S
O299        C308   1.281       .  A
O300       Ni304   1.920       .  S
O300        C307   1.282       .  A
O301       Ni304   1.910       .  S
O301        C306   1.281       .  A
O302       Ni304   1.911       .  S
O302        C305   1.280       .  A
Ni303      Ni304   2.388       .  S
C305        C341   1.475       .  S
C306        C852   1.489       .  S
C307        C460   1.485       .  S
C308        C376   1.481       .  S
O309       Ni317   1.912       .  S
O309        C319   1.281       .  A
O310       Ni317   1.914   1_565  S
O310        C320   1.281       .  A
O311       Ni317   1.910   1_565  S
O311        C321   1.279       .  A
O312       Ni317   1.910       .  S
O312        C322   1.279       .  A
O313       Ni318   1.914       .  S
O313        C322   1.281       .  A
O314       Ni318   1.915   1_565  S
O314        C321   1.280       .  A
O315       Ni318   1.909   1_565  S
O315        C320   1.280       .  A
O316       Ni318   1.909       .  S
O316        C319   1.280       .  A
Ni317      Ni318   2.393       .  S
C319        C488   1.479       .  S
C320        C908   1.477       .  S
C321        C740   1.473       .  S
C322        C369   1.474       .  S
O323       Ni331   1.908       .  S
O323        C333   1.280       .  A
O324       Ni331   1.906       .  S
O324        C334   1.280       .  A
O325       Ni331   1.914       .  S
O325        C335   1.279       .  A
O326       Ni331   1.915       .  S
O326        C336   1.281       .  A
O327       Ni332   1.906       .  S
O327        C336   1.278       .  A
O328       Ni332   1.911       .  S
O328        C335   1.279       .  A
O329       Ni332   1.914       .  S
O329        C334   1.280       .  A
O330       Ni332   1.912       .  S
O330        C333   1.280       .  A
Ni331      Ni332   2.388       .  S
C333        C348   1.501       .  S
C334       C1020   1.477       .  S
C335        C397   1.471   1_455  S
C336        C565   1.473       .  S
C337        C338   1.408       .  A
C337        C342   1.406       .  A
C337        C355   1.451       .  S
C338        C343   1.486       .  S
C338        C339   1.409       .  A
C339        C340   1.406       .  A
C339        C344   1.451       .  S
C340        C341   1.413       .  A
C340        C356   1.451       .  S
C341        C342   1.414       .  A
C342        C345   1.452       .  S
C343        C346   1.404       .  A
C343        C350   1.404       .  A
C344        N361   1.157       .  T
C345        N363   1.157       .  T
C346        C347   1.409       .  A
C346        C351   1.452       .  S
C347        C348   1.426       .  A
C347        C353   1.453       .  S
C348        C349   1.427       .  A
C349        C350   1.407       .  A
C349        C352   1.451       .  S
C350        C354   1.454       .  S
C351        N358   1.158       .  T
C352        N359   1.159       .  T
C353        N357   1.157       .  T
C354        N360   1.157       .  T
C355        N364   1.157       .  T
C356        N362   1.157       .  T
C365        C366   1.412       .  A
C365        C370   1.409       .  A
C365        C383   1.450       .  S
C366        C371   1.494       .  S
C366        C367   1.413       .  A
C367        C368   1.408       .  A
C367        C372   1.451       .  S
C368        C369   1.411       .  A
C368        C384   1.451       .  S
C369        C370   1.411       .  A
C370        C373   1.452       .  S
C371        C374   1.411       .  A
C371        C378   1.412       .  A
C372        N389   1.157       .  T
C373        N391   1.157       .  T
C374        C375   1.409       .  A
C374        C379   1.451       .  S
C375        C376   1.413       .  A
C375        C381   1.452       .  S
C376        C377   1.414       .  A
C377        C378   1.410       .  A
C377        C380   1.452       .  S
C378        C382   1.451       .  S
C379        N386   1.157       .  T
C380        N387   1.157       .  T
C381        N385   1.157       .  T
C382        N388   1.157       .  T
C383        N392   1.157       .  T
C384        N390   1.158       .  T
C393        C394   1.411       .  A
C393        C398   1.404       .  A
C393        C411   1.453       .  S
C394        C399   1.487       .  S
C394        C395   1.410       .  A
C395        C396   1.410       .  A
C395        C400   1.450       .  S
C396        C397   1.412       .  A
C396        C412   1.450       .  S
C397        C398   1.410       .  A
C398        C401   1.450   1_655  S
C399        C402   1.409       .  A
C399        C406   1.411       .  A
C400        N417   1.157       .  T
C401        N419   1.156       .  T
C402        C403   1.407       .  A
C402        C407   1.451       .  S
C403        C404   1.414       .  A
C403        C409   1.452       .  S
C404        C405   1.411       .  A
C405        C406   1.406       .  A
C405        C408   1.451       .  S
C406        C410   1.451       .  S
C407        N414   1.157       .  T
C408        N415   1.157       .  T
C409        N413   1.157       .  T
C410        N416   1.157       .  T
C411        N420   1.157       .  T
C412        N418   1.157       .  T
C421        C422   1.407       .  A
C421        C426   1.408       .  A
C421        C439   1.452       .  S
C422        C427   1.490       .  S
C422        C423   1.408       .  A
C423        C424   1.409       .  A
C423        C428   1.451       .  S
C424        C425   1.418       .  A
C424        C440   1.452       .  S
C425        C426   1.417       .  A
C426        C429   1.450       .  S
C427        C430   1.410       .  A
C427        C434   1.410       .  A
C428        N445   1.158       .  T
C429        N447   1.157       .  T
C430        C431   1.407       .  A
C430        C435   1.451       .  S
C431        C432   1.414       .  A
C431        C437   1.452       .  S
C432        C433   1.413       .  A
C433        C434   1.409       .  A
C433        C436   1.451       .  S
C434        C438   1.450       .  S
C435        N442   1.157       .  T
C436        N443   1.157       .  T
C437        N441   1.158       .  T
C438        N444   1.157       .  T
C439        N448   1.157       .  T
C440        N446   1.157       .  T
C449        C450   1.413       .  A
C449        C454   1.408       .  A
C449        C467   1.451       .  S
C450        C455   1.494       .  S
C450        C451   1.411       .  A
C451        C452   1.411       .  A
C451        C456   1.450       .  S
C452        C453   1.413       .  A
C452        C468   1.451       .  S
C453        C454   1.410       .  A
C454        C457   1.452       .  S
C455        C458   1.410       .  A
C455        C462   1.410       .  A
C456        N473   1.157       .  T
C457        N475   1.157       .  T
C458        C459   1.410       .  A
C458        C463   1.451       .  S
C459        C460   1.416       .  A
C459        C465   1.451       .  S
C460        C461   1.415       .  A
C461        C462   1.409       .  A
C461        C464   1.452       .  S
C462        C466   1.450       .  S
C463        N470   1.157       .  T
C464        N471   1.157       .  T
C465        N469   1.158       .  T
C466        N472   1.157       .  T
C467        N476   1.157       .  T
C468        N474   1.158       .  T
C477        C478   1.410       .  A
C477        C482   1.404       .  A
C477        C495   1.452       .  S
C478        C483   1.488       .  S
C478        C479   1.410       .  A
C479        C480   1.411       .  A
C479        C484   1.449       .  S
C480        C481   1.412       .  A
C480        C496   1.450       .  S
C481        C482   1.412       .  A
C482        C485   1.452       .  S
C483        C486   1.409       .  A
C483        C490   1.409       .  A
C484        N501   1.157       .  T
C485        N503   1.157       .  T
C486        C487   1.409       .  A
C486        C491   1.450       .  S
C487        C488   1.414       .  A
C487        C493   1.451       .  S
C488        C489   1.415       .  A
C489        C490   1.406       .  A
C489        C492   1.452       .  S
C490        C494   1.451       .  S
C491        N498   1.157       .  T
C492        N499   1.157       .  T
C493        N497   1.157       .  T
C494        N500   1.157       .  T
C495        N504   1.157       .  T
C496        N502   1.157       .  T
C505        C506   1.410       .  A
C505        C510   1.410       .  A
C505        C523   1.450       .  S
C506        C511   1.491       .  S
C506        C507   1.410       .  A
C507        C508   1.407       .  A
C507        C512   1.452       .  S
C508        C509   1.412       .  A
C508        C524   1.450       .  S
C509        C510   1.415       .  A
C510        C513   1.451       .  S
C511        C514   1.411       .  A
C511        C518   1.410       .  A
C512        N529   1.157       .  T
C513        N531   1.158       .  T
C514        C515   1.410       .  A
C514        C519   1.450       .  S
C515        C516   1.412       .  A
C515        C521   1.451       .  S
C516        C517   1.413       .  A
C517        C518   1.407       .  A
C517        C520   1.452       .  S
C518        C522   1.452       .  S
C519        N526   1.157       .  T
C520        N527   1.157       .  T
C521        N525   1.157       .  T
C522        N528   1.157       .  T
C523        N532   1.157       .  T
C524        N530   1.156       .  T
C533        C534   1.409       .  A
C533        C538   1.407       .  A
C533        C551   1.453       .  S
C534        C539   1.491       .  S
C534        C535   1.409       .  A
C535        C536   1.411       .  A
C535        C540   1.450       .  S
C536        C537   1.417       .  A
C536        C552   1.451       .  S
C537        C538   1.416       .  A
C538        C541   1.450       .  S
C539        C542   1.411       .  A
C539        C546   1.410       .  A
C540        N557   1.157       .  T
C541        N559   1.157       .  T
C542        C543   1.410       .  A
C542        C547   1.450       .  S
C543        C544   1.410       .  A
C543        C549   1.450       .  S
C544        C545   1.412       .  A
C545        C546   1.407       .  A
C545        C548   1.451       .  S
C546        C550   1.451       .  S
C547        N554   1.157       .  T
C548        N555   1.157       .  T
C549        N553   1.157       .  T
C550        N556   1.157       .  T
C551        N560   1.157       .  T
C552        N558   1.157       .  T
C561        C562   1.409       .  A
C561        C566   1.409       .  A
C561        C579   1.450       .  S
C562        C567   1.487       .  S
C562        C563   1.410       .  A
C563        C564   1.405       .  A
C563        C568   1.452       .  S
C564        C565   1.413       .  A
C564        C580   1.452       .  S
C565        C566   1.411       .  A
C566        C569   1.450       .  S
C567        C570   1.410       .  A
C567        C574   1.408       .  A
C568        N585   1.157       .  T
C569        N587   1.157       .  T
C570        C571   1.411       .  A
C570        C575   1.450       .  S
C571        C572   1.412       .  A
C571        C577   1.450       .  S
C572        C573   1.412       .  A
C573        C574   1.404       .  A
C573        C576   1.451       .  S
C574        C578   1.452       .  S
C575        N582   1.157       .  T
C576        N583   1.157       .  T
C577        N581   1.157       .  T
C578        N584   1.157       .  T
C579        N588   1.157       .  T
C580        N586   1.157       .  T
C589        C590   1.405       .  A
C589        C594   1.411       .  A
C589        C607   1.452       .  S
C590        C595   1.493       .  S
C590        C591   1.406       .  A
C591        C592   1.411       .  A
C591        C596   1.452       .  S
C592        C593   1.426       .  A
C592        C608   1.451       .  S
C593        C594   1.428       .  A
C594        C597   1.452       .  S
C595        C598   1.411       .  A
C595        C602   1.411       .  A
C596        N613   1.157       .  T
C597        N615   1.157       .  T
C598        C599   1.409       .  A
C598        C603   1.450       .  S
C599        C600   1.411       .  A
C599        C605   1.451       .  S
C600        C601   1.412       .  A
C601        C602   1.409       .  A
C601        C604   1.451       .  S
C602        C606   1.451       .  S
C603        N610   1.157       .  T
C604        N611   1.158       .  T
C605        N609   1.157       .  T
C606        N612   1.157       .  T
C607        N616   1.157       .  T
C608        N614   1.158       .  T
C617        C618   1.410       .  A
C617        C622   1.406       .  A
C617        C635   1.451       .  S
C618        C623   1.492       .  S
C618        C619   1.412       .  A
C619        C620   1.409       .  A
C619        C624   1.451       .  S
C620        C621   1.412       .  A
C620        C636   1.451       .  S
C621        C622   1.412       .  A
C622        C625   1.451       .  S
C623        C626   1.409       .  A
C623        C630   1.410       .  A
C624        N641   1.157       .  T
C625        N643   1.157       .  T
C626        C627   1.410       .  A
C626        C631   1.451       .  S
C627        C628   1.418       .  A
C627        C633   1.450       .  S
C628        C629   1.418       .  A
C629        C630   1.408       .  A
C629        C632   1.452       .  S
C630        C634   1.452       .  S
C631        N638   1.157       .  T
C632        N639   1.157       .  T
C633        N637   1.157       .  T
C634        N640   1.158       .  T
C635        N644   1.157       .  T
C636        N642   1.157       .  T
C645        C646   1.409       .  A
C645        C650   1.406       .  A
C645        C663   1.452       .  S
C646        C651   1.486       .  S
C646        C647   1.410       .  A
C647        C648   1.409       .  A
C647        C652   1.450       .  S
C648        C649   1.411       .  A
C648        C664   1.451       .  S
C649        C650   1.411       .  A
C650        C653   1.450       .  S
C651        C654   1.409       .  A
C651        C658   1.408       .  A
C652        N669   1.157       .  T
C653        N671   1.157       .  T
C654        C655   1.411       .  A
C654        C659   1.450       .  S
C655        C656   1.415       .  A
C655        C661   1.451       .  S
C656        C657   1.416       .  A
C657        C658   1.403       .  A
C657        C660   1.453       .  S
C658        C662   1.453       .  S
C659        N666   1.157       .  T
C660        N667   1.158   1_556  T
C661        N665   1.157       .  T
C662        N668   1.157       .  T
C663        N672   1.157       .  T
C664        N670   1.157       .  T
C673        C674   1.404       .  A
C673        C678   1.409       .  A
C673        C691   1.452       .  S
C674        C679   1.487       .  S
C674        C675   1.405       .  A
C675        C676   1.406       .  A
C675        C680   1.454       .  S
C676        C677   1.427       .  A
C676        C692   1.453       .  S
C677        C678   1.427       .  A
C678        C681   1.451       .  S
C679        C682   1.406       .  A
C679        C686   1.403       .  A
C680        N697   1.157       .  T
C681        N699   1.158       .  T
C682        C683   1.408       .  A
C682        C687   1.452       .  S
C683        C684   1.425       .  A
C683        C689   1.452       .  S
C684        C685   1.429       .  A
C685        C686   1.408       .  A
C685        C688   1.451       .  S
C686        C690   1.453       .  S
C687        N694   1.158       .  T
C688        N695   1.158       .  T
C689        N693   1.157       .  T
C690        N696   1.157       .  T
C691        N700   1.157       .  T
C692        N698   1.157       .  T
C701        C702   1.407       .  A
C701        C706   1.407       .  A
C701        C719   1.452       .  S
C702        C707   1.489       .  S
C702        C703   1.409       .  A
C703        C704   1.409       .  A
C703        C708   1.451       .  S
C704        C705   1.415       .  A
C704        C720   1.451       .  S
C705        C706   1.418       .  A
C706        C709   1.452       .  S
C707        C710   1.407       .  A
C707        C714   1.405       .  A
C708        N725   1.157       .  T
C709        N727   1.158       .  T
C710        C711   1.409       .  A
C710        C715   1.451       .  S
C711        C712   1.421       .  A
C711        C717   1.452       .  S
C712        C713   1.424       .  A
C713        C714   1.407       .  A
C713        C716   1.452       .  S
C714        C718   1.453       .  S
C715        N722   1.158       .  T
C716        N723   1.158       .  T
C717        N721   1.157       .  T
C718        N724   1.157       .  T
C719        N728   1.157       .  T
C720        N726   1.157       .  T
C729        C730   1.410       .  A
C729        C734   1.407       .  A
C729        C747   1.451       .  S
C730        C735   1.489       .  S
C730        C731   1.409       .  A
C731        C732   1.408       .  A
C731        C736   1.450       .  S
C732        C733   1.413       .  A
C732        C748   1.451       .  S
C733        C734   1.415       .  A
C734        C737   1.452       .  S
C735        C738   1.411       .  A
C735        C742   1.409       .  A
C736        N753   1.157       .  T
C737        N755   1.158       .  T
C738        C739   1.408       .  A
C738        C743   1.451       .  S
C739        C740   1.412       .  A
C739        C745   1.451       .  S
C740        C741   1.412       .  A
C741        C742   1.408       .  A
C741        C744   1.451       .  S
C742        C746   1.450       .  S
C743        N750   1.157       .  T
C744        N751   1.157       .  T
C745        N749   1.157   1_565  T
C746        N752   1.157       .  T
C747        N756   1.157       .  T
C748        N754   1.157       .  T
C757        C758   1.409       .  A
C757        C762   1.408       .  A
C757        C775   1.452       .  S
C758        C763   1.490       .  S
C758        C759   1.411       .  A
C759        C760   1.408       .  A
C759        C764   1.450       .  S
C760        C761   1.413       .  A
C760        C776   1.452       .  S
C761        C762   1.415       .  A
C762        C765   1.451       .  S
C763        C766   1.411       .  A
C763        C770   1.412       .  A
C764        N781   1.158       .  T
C765        N783   1.158       .  T
C766        C767   1.405       .  A
C766        C771   1.454       .  S
C767        C768   1.413       .  A
C767        C773   1.450       .  S
C768        C769   1.411       .  A
C769        C770   1.410       .  A
C769        C772   1.452       .  S
C770        C774   1.448       .  S
C771        N778   1.155       .  T
C772        N779   1.155       .  T
C773        N777   1.159       .  T
C774        N780   1.159       .  T
C775        N784   1.156       .  T
C776        N782   1.157       .  T
C785        C786   1.412       .  A
C785        C790   1.406       .  A
C785        C803   1.452       .  S
C786        C791   1.491       .  S
C786        C787   1.409       .  A
C787        C788   1.409       .  A
C787        C792   1.450       .  S
C788        C789   1.416       .  A
C788        C804   1.451       .  S
C789        C790   1.414       .  A
C790        C793   1.452       .  S
C791        C794   1.411       .  A
C791        C798   1.412       .  A
C792        N809   1.157       .  T
C793        N811   1.157       .  T
C794        C795   1.409       .  A
C794        C799   1.450       .  S
C795        C796   1.412       .  A
C795        C801   1.451       .  S
C796        C797   1.410       .  A
C797        C798   1.406       .  A
C797        C800   1.452       .  S
C798        C802   1.451       .  S
C799        N806   1.157       .  T
C800        N807   1.157       .  T
C801        N805   1.157       .  T
C802        N808   1.157       .  T
C803        N812   1.157       .  T
C804        N810   1.157       .  T
C813        C814   1.409       .  A
C813        C818   1.406       .  A
C813        C831   1.451       .  S
C814        C819   1.487       .  S
C814        C815   1.409       .  A
C815        C816   1.408       .  A
C815        C820   1.451       .  S
C816        C817   1.415       .  A
C816        C832   1.451       .  S
C817        C818   1.414       .  A
C818        C821   1.452       .  S
C819        C822   1.409       .  A
C819        C826   1.411       .  A
C820        N837   1.157       .  T
C821        N839   1.157       .  T
C822        C823   1.406       .  A
C822        C827   1.451       .  S
C823        C824   1.411       .  A
C823        C829   1.451       .  S
C824        C825   1.410       .  A
C825        C826   1.408       .  A
C825        C828   1.451       .  S
C826        C830   1.451       .  S
C827        N834   1.157       .  T
C828        N835   1.157   1_545  T
C829        N833   1.157       .  T
C830        N836   1.157       .  T
C831        N840   1.157       .  T
C832        N838   1.157       .  T
C841        C842   1.408       .  A
C841        C846   1.407       .  A
C841        C859   1.454       .  S
C842        C847   1.488       .  S
C842        C843   1.405       .  A
C843        C844   1.407       .  A
C843        C848   1.452       .  S
C844        C845   1.424       .  A
C844        C860   1.451       .  S
C845        C846   1.424       .  A
C846        C849   1.453       .  S
C847        C850   1.408       .  A
C847        C854   1.408       .  A
C848        N865   1.157       .  T
C849        N867   1.157       .  T
C850        C851   1.405       .  A
C850        C855   1.454       .  S
C851        C852   1.421       .  A
C851        C857   1.452       .  S
C852        C853   1.419       .  A
C853        C854   1.408       .  A
C853        C856   1.452       .  S
C854        C858   1.451       .  S
C855        N862   1.157       .  T
C856        N863   1.157       .  T
C857        N861   1.158       .  T
C858        N864   1.157       .  T
C859        N868   1.158       .  T
C860        N866   1.158       .  T
C869        C870   1.408       .  A
C869        C874   1.411       .  A
C869        C887   1.451       .  S
C870        C875   1.492       .  S
C870        C871   1.410       .  A
C871        C872   1.408       .  A
C871        C876   1.452       .  S
C872        C873   1.414       .  A
C872        C888   1.449       .  S
C873        C874   1.419       .  A
C874        C877   1.452       .  S
C875        C878   1.410       .  A
C875        C882   1.411       .  A
C876        N893   1.157       .  T
C877        N895   1.158   1_565  T
C878        C879   1.409       .  A
C878        C883   1.451       .  S
C879        C880   1.414       .  A
C879        C885   1.452       .  S
C880        C881   1.411       .  A
C881        C882   1.408       .  A
C881        C884   1.451       .  S
C882        C886   1.450       .  S
C883        N890   1.157       .  T
C884        N891   1.157       .  T
C885        N889   1.158       .  T
C886        N892   1.157       .  T
C887        N896   1.157       .  T
C888        N894   1.156       .  T
C897        C898   1.412       .  A
C897        C902   1.406       .  A
C897        C915   1.451       .  S
C898        C903   1.491       .  S
C898        C899   1.412       .  A
C899        C900   1.408       .  A
C899        C904   1.451       .  S
C900        C901   1.411       .  A
C900        C916   1.451       .  S
C901        C902   1.411       .  A
C902        C905   1.452       .  S
C903        C906   1.411       .  A
C903        C910   1.411       .  A
C904        N921   1.157       .  T
C905        N923   1.157       .  T
C906        C907   1.409       .  A
C906        C911   1.451       .  S
C907        C908   1.413       .  A
C907        C913   1.451       .  S
C908        C909   1.413       .  A
C909        C910   1.406       .  A
C909        C912   1.452       .  S
C910        C914   1.452       .  S
C911        N918   1.157       .  T
C912        N919   1.157       .  T
C913        N917   1.157       .  T
C914        N920   1.157       .  T
C915        N924   1.157       .  T
C916        N922   1.158       .  T
C925        C926   1.409       .  A
C925        C930   1.410       .  A
C925        C943   1.451       .  S
C926        C931   1.494       .  S
C926        C927   1.410       .  A
C927        C928   1.410       .  A
C927        C932   1.451       .  S
C928        C929   1.418       .  A
C928        C944   1.452       .  S
C929        C930   1.416       .  A
C930        C933   1.451       .  S
C931        C934   1.411       .  A
C931        C938   1.411       .  A
C932        N949   1.158       .  T
C933        N951   1.158       .  T
C934        C935   1.411       .  A
C934        C939   1.450       .  S
C935        C936   1.413       .  A
C935        C941   1.451       .  S
C936        C937   1.413       .  A
C937        C938   1.408       .  A
C937        C940   1.452       .  S
C938        C942   1.452       .  S
C939        N946   1.158       .  T
C940        N947   1.158       .  T
C941        N945   1.157       .  T
C942        N948   1.157       .  T
C943        N952   1.157       .  T
C944        N950   1.157       .  T
C953        C954   1.410       .  A
C953        C958   1.407       .  A
C953        C971   1.452       .  S
C954        C959   1.489       .  S
C954        C955   1.408       .  A
C955        C956   1.409       .  A
C955        C960   1.451       .  S
C956        C957   1.418       .  A
C956        C972   1.451       .  S
C957        C958   1.414       .  A
C958        C961   1.451       .  S
C959        C962   1.411       .  A
C959        C966   1.410       .  A
C960        N977   1.157       .  T
C961        N979   1.157       .  T
C962        C963   1.405       .  A
C962        C967   1.451       .  S
C963        C964   1.412       .  A
C963        C969   1.453       .  S
C964        C965   1.411       .  A
C965        C966   1.409       .  A
C965        C968   1.451       .  S
C966        C970   1.450       .  S
C967        N974   1.157       .  T
C968        N975   1.157       .  T
C969        N973   1.157       .  T
C970        N976   1.157       .  T
C971        N980   1.157       .  T
C972        N978   1.157       .  T
C981        C982   1.413       .  A
C981        C986   1.411       .  A
C981        C999   1.450       .  S
C982        C987   1.494       .  S
C982        C983   1.410       .  A
C983        C984   1.407       .  A
C983        C988   1.451       .  S
C984        C985   1.413       .  A
C984       C1000   1.451       .  S
C985        C986   1.410       .  A
C986        C989   1.450       .  S
C987        C990   1.410       .  A
C987        C994   1.410   1_655  A
C988       N1005   1.157   1_655  T
C989       N1007   1.157       .  T
C990        C991   1.409       .  A
C990        C995   1.451       .  S
C991        C992   1.416   1_655  A
C991        C997   1.451       .  S
C992        C993   1.416       .  A
C993        C994   1.410       .  A
C993        C996   1.452       .  S
C994        C998   1.451       .  S
C995       N1002   1.157       .  T
C996       N1003   1.157       .  T
C997       N1001   1.157       .  T
C998       N1004   1.157       .  T
C999       N1008   1.157       .  T
C1000      N1006   1.157       .  T
C1009      C1010   1.408       .  A
C1009      C1014   1.404       .  A
C1009      C1027   1.454       .  S
C1010      C1015   1.488       .  S
C1010      C1011   1.407       .  A
C1011      C1012   1.411       .  A
C1011      C1016   1.450       .  S
C1012      C1013   1.418       .  A
C1012      C1028   1.449       .  S
C1013      C1014   1.421       .  A
C1014      C1017   1.453       .  S
C1015      C1018   1.409       .  A
C1015      C1022   1.410       .  A
C1016      N1033   1.157       .  T
C1017      N1035   1.158       .  T
C1018      C1019   1.409       .  A
C1018      C1023   1.450       .  S
C1019      C1020   1.414   1_655  A
C1019      C1025   1.451       .  S
C1020      C1021   1.414       .  A
C1021      C1022   1.405   1_455  A
C1021      C1024   1.453       .  S
C1022      C1026   1.452       .  S
C1023      N1030   1.157       .  T
C1024      N1031   1.157       .  T
C1025      N1029   1.157       .  T
C1026      N1032   1.157   1_655  T
C1027      N1036   1.157       .  T
C1028      N1034   1.157       .  T
C1037      C1038   1.410       .  A
C1037      C1042   1.408       .  A
C1037      C1055   1.452       .  S
C1038      C1043   1.492       .  S
C1038      C1039   1.410       .  A
C1039      C1040   1.409       .  A
C1039      C1044   1.450       .  S
C1040      C1041   1.412       .  A
C1040      C1056   1.451       .  S
C1041      C1042   1.416       .  A
C1042      C1045   1.452       .  S
C1043      C1046   1.405       .  A
C1043      C1050   1.406       .  A
C1044      N1061   1.158       .  T
C1045      N1063   1.158       .  T
C1046      C1047   1.412       .  A
C1046      C1051   1.452       .  S
C1047      C1048   1.426       .  A
C1047      C1053   1.449       .  S
C1048      C1049   1.426       .  A
C1049      C1050   1.408       .  A
C1049      C1052   1.453       .  S
C1050      C1054   1.453       .  S
C1051      N1058   1.156       .  T
C1052      N1059   1.156       .  T
C1053      N1057   1.158       .  T
C1054      N1060   1.158       .  T
C1055      N1064   1.157       .  T
C1056      N1062   1.157       .  T
C1065      C1066   1.410       .  A
C1065      C1070   1.408       .  A
C1065      C1083   1.451       .  S
C1066      C1071   1.487       .  S
C1066      C1067   1.409       .  A
C1067      C1068   1.406       .  A
C1067      C1072   1.451       .  S
C1068      C1069   1.411       .  A
C1068      C1084   1.452       .  S
C1069      C1070   1.413       .  A
C1070      C1073   1.452       .  S
C1071      C1074   1.410       .  A
C1071      C1078   1.408       .  A
C1072      N1089   1.157       .  T
C1073      N1091   1.157       .  T
C1074      C1075   1.405       .  A
C1074      C1079   1.451       .  S
C1075      C1076   1.413       .  A
C1075      C1081   1.452       .  S
C1076      C1077   1.416       .  A
C1077      C1078   1.409       .  A
C1077      C1080   1.451       .  S
C1078      C1082   1.451       .  S
C1079      N1086   1.158       .  T
C1080      N1087   1.158       .  T
C1081      N1085   1.157       .  T
C1082      N1088   1.157       .  T
C1083      N1092   1.157       .  T
C1084      N1090   1.157       .  T
C1093      C1094   1.410       .  A
C1093      C1098   1.408       .  A
C1093      C1111   1.452       .  S
C1094      C1099   1.491       .  S
C1094      C1095   1.413       .  A
C1095      C1096   1.408       .  A
C1095      C1100   1.451       .  S
C1096      C1097   1.408       .  A
C1096      C1112   1.451       .  S
C1097      C1098   1.413       .  A
C1098      C1101   1.450       .  S
C1099      C1102   1.412       .  A
C1099      C1106   1.410       .  A
C1100      N1117   1.158       .  T
C1101      N1119   1.159       .  T
C1102      C1103   1.407       .  A
C1102      C1107   1.448       .  S
C1103      C1104   1.410       .  A
C1103      C1109   1.455       .  S
C1104      C1105   1.414       .  A
C1105      C1106   1.408       .  A
C1105      C1108   1.448       .  S
C1106      C1110   1.454       .  S
C1107      N1114   1.160       .  T
C1108      N1115   1.161       .  T
C1109      N1113   1.154       .  T
C1110      N1116   1.154       .  T
C1111      N1120   1.156       .  T
C1112      N1118   1.156       .  T
C1121      C1122   1.410       .  A
C1121      C1126   1.404       .  A
C1121      C1139   1.451       .  S
C1122      C1127   1.485       .  S
C1122      C1123   1.408       .  A
C1123      C1124   1.408       .  A
C1123      C1128   1.450       .  S
C1124      C1125   1.413       .  A
C1124      C1140   1.451       .  S
C1125      C1126   1.410       .  A
C1126      C1129   1.452   1_556  S
C1127      C1130   1.408       .  A
C1127      C1134   1.407       .  A
C1128      N1145   1.157       .  T
C1129      N1147   1.157       .  T
C1130      C1131   1.406       .  A
C1130      C1135   1.453       .  S
C1131      C1132   1.416       .  A
C1131      C1137   1.450       .  S
C1132      C1133   1.416       .  A
C1133      C1134   1.407       .  A
C1133      C1136   1.452       .  S
C1134      C1138   1.450       .  S
C1135      N1142   1.156       .  T
C1136      N1143   1.156       .  T
C1137      N1141   1.159       .  T
C1138      N1144   1.158       .  T
C1139      N1148   1.157       .  T
C1140      N1146   1.157       .  T
C1149      C1150   1.408       .  A
C1149      C1154   1.411       .  A
C1149      C1167   1.452       .  S
C1150      C1155   1.494       .  S
C1150      C1151   1.405       .  A
C1151      C1152   1.411       .  A
C1151      C1156   1.452       .  S
C1152      C1153   1.426       .  A
C1152      C1168   1.452       .  S
C1153      C1154   1.423       .  A
C1154      C1157   1.451       .  S
C1155      C1158   1.410       .  A
C1155      C1162   1.409       .  A
C1156      N1173   1.157       .  T
C1157      N1175   1.157       .  T
C1158      C1159   1.411       .  A
C1158      C1163   1.450       .  S
C1159      C1160   1.415       .  A
C1159      C1165   1.451       .  S
C1160      C1161   1.416       .  A
C1161      C1162   1.408       .  A
C1161      C1164   1.452       .  S
C1162      C1166   1.451       .  S
C1163      N1170   1.157       .  T
C1164      N1171   1.157       .  T
C1165      N1169   1.157       .  T
C1166      N1172   1.157       .  T
C1167      N1176   1.157       .  T
C1168      N1174   1.158       .  T
C1177      C1178   1.410       .  A
C1177      C1182   1.407       .  A
C1177      C1195   1.452       .  S
C1178      C1183   1.489       .  S
C1178      C1179   1.409       .  A
C1179      C1180   1.407       .  A
C1179      C1184   1.452       .  S
C1180      C1181   1.418       .  A
C1180      C1196   1.452       .  S
C1181      C1182   1.415       .  A
C1182      C1185   1.451       .  S
C1183      C1186   1.412       .  A
C1183      C1190   1.411       .  A
C1184      N1201   1.157       .  T
C1185      N1203   1.157       .  T
C1186      C1187   1.405   1_655  A
C1186      C1191   1.452       .  S
C1187      C1188   1.412       .  A
C1187      C1193   1.453       .  S
C1188      C1189   1.412   1_455  A
C1189      C1190   1.408       .  A
C1189      C1192   1.451       .  S
C1190      C1194   1.450       .  S
C1191      N1198   1.157       .  T
C1192      N1199   1.157       .  T
C1193      N1197   1.158       .  T
C1194      N1200   1.157       .  T
C1195      N1204   1.157       .  T
C1196      N1202   1.158       .  T
C1205      C1206   1.405       .  A
C1205      C1210   1.406       .  A
C1205      C1223   1.454       .  S
C1206      C1211   1.488       .  S
C1206      C1207   1.406       .  A
C1207      C1208   1.410       .  A
C1207      C1212   1.452       .  S
C1208      C1209   1.423       .  A
C1208      C1224   1.451       .  S
C1209      C1210   1.428       .  A
C1210      C1213   1.453       .  S
C1211      C1214   1.411       .  A
C1211      C1218   1.409       .  A
C1212      N1229   1.157       .  T
C1213      N1231   1.158       .  T
C1214      C1215   1.407       .  A
C1214      C1219   1.451       .  S
C1215      C1216   1.412       .  A
C1215      C1221   1.452       .  S
C1216      C1217   1.413       .  A
C1217      C1218   1.406       .  A
C1217      C1220   1.452       .  S
C1218      C1222   1.451       .  S
C1219      N1226   1.157       .  T
C1220      N1227   1.157       .  T
C1221      N1225   1.157       .  T
C1222      N1228   1.157       .  T
C1223      N1232   1.157       .  T
C1224      N1230   1.157       .  T
C1233      C1234   1.408       .  A
C1233      C1238   1.405       .  A
C1233      C1251   1.451       .  S
C1234      C1239   1.487       .  S
C1234      C1235   1.411       .  A
C1235      C1236   1.407       .  A
C1235      C1240   1.451       .  S
C1236      C1237   1.412       .  A
C1236      C1252   1.452       .  S
C1237      C1238   1.414       .  A
C1238      C1241   1.452       .  S
C1239      C1242   1.410       .  A
C1239      C1246   1.408       .  A
C1240      N1257   1.158       .  T
C1241      N1259   1.158       .  T
C1242      C1243   1.408       .  A
C1242      C1247   1.451       .  S
C1243      C1244   1.413       .  A
C1243      C1249   1.452       .  S
C1244      C1245   1.415       .  A
C1245      C1246   1.405       .  A
C1245      C1248   1.452       .  S
C1246      C1250   1.452       .  S
C1247      N1254   1.158       .  T
C1248      N1255   1.158   1_655  T
C1249      N1253   1.157       .  T
C1250      N1256   1.157       .  T
C1251      N1260   1.157       .  T
C1252      N1258   1.157       .  T
C1261      C1262   1.411       .  A
C1261      C1266   1.405       .  A
C1261      C1279   1.452       .  S
C1262      C1267   1.490       .  S
C1262      C1263   1.410       .  A
C1263      C1264   1.409       .  A
C1263      C1268   1.450       .  S
C1264      C1265   1.414       .  A
C1264      C1280   1.451       .  S
C1265      C1266   1.413       .  A
C1266      C1269   1.453       .  S
C1267      C1270   1.409       .  A
C1267      C1274   1.410       .  A
C1268      N1285   1.157       .  T
C1269      N1287   1.157       .  T
C1270      C1271   1.407       .  A
C1270      C1275   1.451       .  S
C1271      C1272   1.415       .  A
C1271      C1277   1.451       .  S
C1272      C1273   1.416       .  A
C1273      C1274   1.407       .  A
C1273      C1276   1.452       .  S
C1274      C1278   1.452       .  S
C1275      N1282   1.157       .  T
C1276      N1283   1.158       .  T
C1277      N1281   1.157       .  T
C1278      N1284   1.157       .  T
C1279      N1288   1.157       .  T
C1280      N1286   1.158       .  T
C1289      C1290   1.410       .  A
C1289      C1294   1.404       .  A
C1289      C1307   1.451       .  S
C1290      C1295   1.486       .  S
C1290      C1291   1.411       .  A
C1291      C1292   1.408       .  A
C1291      C1296   1.450       .  S
C1292      C1293   1.410       .  A
C1292      C1308   1.451       .  S
C1293      C1294   1.410       .  A
C1294      C1297   1.451       .  S
C1295      C1298   1.409       .  A
C1295      C1302   1.410       .  A
C1296      N1313   1.157       .  T
C1297      N1315   1.157       .  T
C1298      C1299   1.410       .  A
C1298      C1303   1.450       .  S
C1299      C1300   1.414       .  A
C1299      C1305   1.451       .  S
C1300      C1301   1.413       .  A
C1301      C1302   1.403       .  A
C1301      C1304   1.453       .  S
C1302      C1306   1.453       .  S
C1303      N1310   1.157       .  T
C1304      N1311   1.157       .  T
C1305      N1309   1.157       .  T
C1306      N1312   1.157       .  T
C1307      N1316   1.157       .  T
C1308      N1314   1.157       .  T
C1317      C1318   1.412       .  A
C1317      C1322   1.409       .  A
C1317      C1335   1.451       .  S
C1318      C1323   1.493       .  S
C1318      C1319   1.411       .  A
C1319      C1320   1.408       .  A
C1319      C1324   1.452       .  S
C1320      C1321   1.415       .  A
C1320      C1336   1.452       .  S
C1321      C1322   1.412       .  A
C1322      C1325   1.451       .  S
C1323      C1326   1.411       .  A
C1323      C1330   1.412       .  A
C1324      N1341   1.157       .  T
C1325      N1343   1.157       .  T
C1326      C1327   1.407       .  A
C1326      C1331   1.452       .  S
C1327      C1328   1.410       .  A
C1327      C1333   1.448       .  S
C1328      C1329   1.412       .  A
C1329      C1330   1.410       .  A
C1329      C1332   1.451       .  S
C1330      C1334   1.450       .  S
C1331      N1338   1.157       .  T
C1332      N1339   1.157       .  T
C1333      N1337   1.156       .  T
C1334      N1340   1.157       .  T
C1335      N1344   1.157       .  T
C1336      N1342   1.158       .  T
C1345      C1346   1.411       .  A
C1345      C1350   1.412       .  A
C1345      C1363   1.450       .  S
C1346      C1351   1.492       .  S
C1346      C1347   1.410       .  A
C1347      C1348   1.407       .  A
C1347      C1352   1.451       .  S
C1348      C1349   1.414       .  A
C1348      C1364   1.452       .  S
C1349      C1350   1.413       .  A
C1350      C1353   1.451       .  S
C1351      C1354   1.409       .  A
C1351      C1358   1.409       .  A
C1352      N1369   1.157       .  T
C1353      N1371   1.158       .  T
C1354      C1355   1.410       .  A
C1354      C1359   1.451       .  S
C1355      C1356   1.416       .  A
C1355      C1361   1.451       .  S
C1356      C1357   1.417       .  A
C1357      C1358   1.409       .  A
C1357      C1360   1.452       .  S
C1358      C1362   1.451       .  S
C1359      N1366   1.157       .  T
C1360      N1367   1.157       .  T
C1361      N1365   1.157       .  T
C1362      N1368   1.157       .  T
C1363      N1372   1.157       .  T
C1364      N1370   1.157       .  T
C1373      C1374   1.411       .  A
C1373      C1378   1.403       .  A
C1373      C1391   1.452       .  S
C1374      C1379   1.485       .  S
C1374      C1375   1.410       .  A
C1375      C1376   1.407       .  A
C1375      C1380   1.451       .  S
C1376      C1377   1.411       .  A
C1376      C1392   1.451       .  S
C1377      C1378   1.409       .  A
C1378      C1381   1.452       .  S
C1379      C1382   1.411       .  A
C1379      C1386   1.409       .  A
C1380      N1397   1.157       .  T
C1381      N1399   1.157   1_545  T
C1382      C1383   1.405       .  A
C1382      C1387   1.452       .  S
C1383      C1384   1.412       .  A
C1383      C1389   1.452       .  S
C1384      C1385   1.412       .  A
C1385      C1386   1.406       .  A
C1385      C1388   1.452       .  S
C1386      C1390   1.451       .  S
C1387      N1394   1.157       .  T
C1388      N1395   1.157       .  T
C1389      N1393   1.158       .  T
C1390      N1396   1.157       .  T
C1391      N1400   1.157       .  T
C1392      N1398   1.158       .  T
C1401      C1402   1.407       .  A
C1401      C1406   1.409       .  A
C1401      C1419   1.452       .  S
C1402      C1407   1.487       .  S
C1402      C1403   1.407       .  A
C1403      C1404   1.407       .  A
C1403      C1408   1.451       .  S
C1404      C1405   1.419       .  A
C1404      C1420   1.454       .  S
C1405      C1406   1.417       .  A
C1406      C1409   1.448       .  S
C1407      C1410   1.410       .  A
C1407      C1414   1.410       .  A
C1408      N1425   1.159       .  T
C1409      N1427   1.158       .  T
C1410      C1411   1.410       .  A
C1410      C1415   1.450       .  S
C1411      C1412   1.411       .  A
C1411      C1417   1.451       .  S
C1412      C1413   1.411       .  A
C1413      C1414   1.404       .  A
C1413      C1416   1.453       .  S
C1414      C1418   1.452       .  S
C1415      N1422   1.157       .  T
C1416      N1423   1.157       .  T
C1417      N1421   1.157       .  T
C1418      N1424   1.157       .  T
C1419      N1428   1.156       .  T
C1420      N1426   1.156       .  T
C1429      C1430   1.411       .  A
C1429      C1434   1.410       .  A
C1429      C1447   1.450       .  S
C1430      C1435   1.489       .  S
C1430      C1431   1.410       .  A
C1431      C1432   1.406       .  A
C1431      C1436   1.452       .  S
C1432      C1433   1.413       .  A
C1432      C1448   1.452       .  S
C1433      C1434   1.410       .  A
C1434      C1437   1.450       .  S
C1435      C1438   1.406       .  A
C1435      C1442   1.404       .  A
C1436      N1453   1.157       .  T
C1437      N1455   1.157       .  T
C1438      C1439   1.409       .  A
C1438      C1443   1.453       .  S
C1439      C1440   1.426       .  A
C1439      C1445   1.452       .  S
C1440      C1441   1.425       .  A
C1441      C1442   1.409       .  A
C1441      C1444   1.451       .  S
C1442      C1446   1.452       .  S
C1443      N1450   1.157       .  T
C1444      N1451   1.157       .  T
C1445      N1449   1.158       .  T
C1446      N1452   1.157       .  T
C1447      N1456   1.157       .  T
C1448      N1454   1.157       .  T
C1457      C1458   1.411       .  A
C1457      C1462   1.410       .  A
C1457      C1475   1.450       .  S
C1458      C1463   1.490       .  S
C1458      C1459   1.410       .  A
C1459      C1460   1.407       .  A
C1459      C1464   1.451       .  S
C1460      C1461   1.411       .  A
C1460      C1476   1.450   1_556  S
C1461      C1462   1.410       .  A
C1462      C1465   1.450       .  S
C1463      C1466   1.409       .  A
C1463      C1470   1.409       .  A
C1464      N1481   1.157       .  T
C1465      N1483   1.157       .  T
C1466      C1467   1.412       .  A
C1466      C1471   1.450       .  S
C1467      C1468   1.414       .  A
C1467      C1473   1.450       .  S
C1468      C1469   1.414       .  A
C1469      C1470   1.406       .  A
C1469      C1472   1.450       .  S
C1470      C1474   1.452       .  S
C1471      N1478   1.156       .  T
C1472      N1479   1.155       .  T
C1473      N1477   1.158       .  T
C1474      N1480   1.158       .  T
C1475      N1484   1.157       .  T
C1476      N1482   1.157       .  T
C1485      C1486   1.403       .  A
C1485      C1490   1.406       .  A
C1485      C1503   1.454       .  S
C1486      C1491   1.488       .  S
C1486      C1487   1.406       .  A
C1487      C1488   1.410       .  A
C1487      C1492   1.451       .  S
C1488      C1489   1.423       .  A
C1488      C1504   1.451       .  S
C1489      C1490   1.428       .  A
C1490      C1493   1.452       .  S
C1491      C1494   1.411       .  A
C1491      C1498   1.408       .  A
C1492      N1509   1.158       .  T
C1493      N1511   1.158       .  T
C1494      C1495   1.408   1_556  A
C1494      C1499   1.451       .  S
C1495      C1496   1.412       .  A
C1495      C1501   1.451       .  S
C1496      C1497   1.415   1_554  A
C1497      C1498   1.407       .  A
C1497      C1500   1.452       .  S
C1498      C1502   1.451       .  S
C1499      N1506   1.157       .  T
C1500      N1507   1.157       .  T
C1501      N1505   1.158       .  T
C1502      N1508   1.157       .  T
C1503      N1512   1.157       .  T
C1504      N1510   1.157       .  T
C1513      C1514   1.410       .  A
C1513      C1518   1.410       .  A
C1513      C1531   1.450       .  S
C1514      C1519   1.489       .  S
C1514      C1515   1.411       .  A
C1515      C1516   1.405       .  A
C1515      C1520   1.452       .  S
C1516      C1517   1.413       .  A
C1516      C1532   1.453       .  S
C1517      C1518   1.413       .  A
C1518      C1521   1.450       .  S
C1519      C1522   1.407       .  A
C1519      C1526   1.409       .  A
C1520      N1537   1.157       .  T
C1521      N1539   1.158       .  T
C1522      C1523   1.407       .  A
C1522      C1527   1.452       .  S
C1523      C1524   1.418       .  A
C1523      C1529   1.449       .  S
C1524      C1525   1.416       .  A
C1525      C1526   1.410       .  A
C1525      C1528   1.451       .  S
C1526      C1530   1.450       .  S
C1527      N1534   1.157       .  T
C1528      N1535   1.157       .  T
C1529      N1533   1.157       .  T
C1530      N1536   1.157       .  T
C1531      N1540   1.157       .  T
C1532      N1538   1.157       .  T
C1541      C1542   1.411       .  A
C1541      C1546   1.406       .  A
C1541      C1559   1.451       .  S
C1542      C1547   1.489       .  S
C1542      C1543   1.410       .  A
C1543      C1544   1.408       .  A
C1543      C1548   1.451       .  S
C1544      C1545   1.412       .  A
C1544      C1560   1.451       .  S
C1545      C1546   1.410       .  A
C1546      C1549   1.452       .  S
C1547      C1550   1.411       .  A
C1547      C1554   1.410       .  A
C1548      N1565   1.157       .  T
C1549      N1567   1.157       .  T
C1550      C1551   1.406       .  A
C1550      C1555   1.452       .  S
C1551      C1552   1.411       .  A
C1551      C1557   1.452       .  S
C1552      C1553   1.412       .  A
C1553      C1554   1.408       .  A
C1553      C1556   1.451       .  S
C1554      C1558   1.450       .  S
C1555      N1562   1.157       .  T
C1556      N1563   1.157       .  T
C1557      N1561   1.157       .  T
C1558      N1564   1.157       .  T
C1559      N1568   1.157       .  T
C1560      N1566   1.158       .  T
C1569      C1570   1.407       .  A
C1569      C1574   1.406       .  A
C1569      C1587   1.452       .  S
C1570      C1575   1.486       .  S
C1570      C1571   1.410       .  A
C1571      C1572   1.407       .  A
C1571      C1576   1.450       .  S
C1572      C1573   1.411       .  A
C1572      C1588   1.453       .  S
C1573      C1574   1.416       .  A
C1574      C1577   1.451       .  S
C1575      C1578   1.408       .  A
C1575      C1582   1.411       .  A
C1576      N1593   1.158       .  T
C1577      N1595   1.159       .  T
C1578      C1579   1.407       .  A
C1578      C1583   1.450       .  S
C1579      C1580   1.413       .  A
C1579      C1585   1.451       .  S
C1580      C1581   1.412       .  A
C1581      C1582   1.407       .  A
C1581      C1584   1.452       .  S
C1582      C1586   1.451       .  S
C1583      N1590   1.157       .  T
C1584      N1591   1.157   1_655  T
C1585      N1589   1.158       .  T
C1586      N1592   1.158       .  T
C1587      N1596   1.156       .  T
C1588      N1594   1.156       .  T
C1597      C1598   1.410       .  A
C1597      C1602   1.406       .  A
C1597      C1615   1.451       .  S
C1598      C1603   1.488       .  S
C1598      C1599   1.409       .  A
C1599      C1600   1.407   1_556  A
C1599      C1604   1.451       .  S
C1600      C1601   1.416       .  A
C1600      C1616   1.451       .  S
C1601      C1602   1.416   1_554  A
C1602      C1605   1.453       .  S
C1603      C1606   1.410       .  A
C1603      C1610   1.411       .  A
C1604      N1621   1.157       .  T
C1605      N1623   1.157       .  T
C1606      C1607   1.406       .  A
C1606      C1611   1.451       .  S
C1607      C1608   1.411       .  A
C1607      C1613   1.452       .  S
C1608      C1609   1.412       .  A
C1609      C1610   1.408       .  A
C1609      C1612   1.452       .  S
C1610      C1614   1.451       .  S
C1611      N1618   1.157       .  T
C1612      N1619   1.157       .  T
C1613      N1617   1.157       .  T
C1614      N1620   1.157   1_556  T
C1615      N1624   1.158       .  T
C1616      N1622   1.158       .  T
C1625      C1626   1.411       .  A
C1625      C1630   1.404       .  A
C1625      C1643   1.452       .  S
C1626      C1631   1.488       .  S
C1626      C1627   1.411       .  A
C1627      C1628   1.408       .  A
C1627      C1632   1.450       .  S
C1628      C1629   1.413       .  A
C1628      C1644   1.451       .  S
C1629      C1630   1.412       .  A
C1630      C1633   1.452       .  S
C1631      C1634   1.411       .  A
C1631      C1638   1.411       .  A
C1632      N1649   1.157       .  T
C1633      N1651   1.158       .  T
C1634      C1635   1.404       .  A
C1634      C1639   1.452       .  S
C1635      C1636   1.412   1_556  A
C1635      C1641   1.453       .  S
C1636      C1637   1.412       .  A
C1637      C1638   1.408   1_554  A
C1637      C1640   1.452       .  S
C1638      C1642   1.451       .  S
C1639      N1646   1.157       .  T
C1640      N1647   1.157       .  T
C1641      N1645   1.157       .  T
C1642      N1648   1.157   1_556  T
C1643      N1652   1.157       .  T
C1644      N1650   1.157       .  T
C1653      C1654   1.406       .  A
C1653      C1658   1.408       .  A
C1653      C1671   1.454       .  S
C1654      C1659   1.492       .  S
C1654      C1655   1.406       .  A
C1655      C1656   1.412       .  A
C1655      C1660   1.452       .  S
C1656      C1657   1.427       .  A
C1656      C1672   1.451       .  S
C1657      C1658   1.427       .  A
C1658      C1661   1.452       .  S
C1659      C1662   1.410       .  A
C1659      C1666   1.411       .  A
C1660      N1677   1.157       .  T
C1661      N1679   1.157       .  T
C1662      C1663   1.406       .  A
C1662      C1667   1.452       .  S
C1663      C1664   1.415       .  A
C1663      C1669   1.453       .  S
C1664      C1665   1.414       .  A
C1665      C1666   1.410       .  A
C1665      C1668   1.451       .  S
C1666      C1670   1.450       .  S
C1667      N1674   1.157       .  T
C1668      N1675   1.157       .  T
C1669      N1673   1.157       .  T
C1670      N1676   1.157       .  T
C1671      N1680   1.157       .  T
C1672      N1678   1.158       .  T
