geometry optimzed in LAMMPS
_audit_creation_date              2020-11-30 
_audit_creation_method            'lammps2cif' 
_symmetry_space_group_name_H-M    'P1' 
_symmetry_Int_Tables_number       1 
_symmetry_cell_setting            triclinic 
loop_ 
_symmetry_equiv_pos_as_xyz 
  x,y,z 
_cell_length_a                    36.49680139411088 
_cell_length_b                    35.05478262546642 
_cell_length_c                    34.891402487952895 
_cell_angle_alpha                 85.16502974598768 
_cell_angle_beta                  85.77782412290196 
_cell_angle_gamma                 86.60457079752273 
loop_ 
_atom_site_label 
_atom_site_type_symbol 
_atom_site_fract_x 
_atom_site_fract_y 
_atom_site_fract_z 
_atom_site_charge 
O1          O  0.05176975  0.97720204  0.12391700    -0.82450
O2          O  0.33962888  0.26026309  0.20381901    -0.82470
O3          O  0.06194371  0.03840322  0.21109526    -0.82480
O4          O  0.31294520  0.27073389  0.12048631    -0.82420
O5          O  0.05968880  0.30955229  0.21397710    -0.82540
O6          O  0.00023166  0.30936067  0.07144692    -0.82460
O7          O  0.28136431  0.25955766  0.19761379    -0.82450
O8          O  0.06456091  0.03682882  0.13153999    -0.82480
C9          C  0.07286304  0.00478839  0.11688855     1.07240
C10         C  0.31025222  0.24332123  0.21146926     1.07130
C11         C  0.07436129  0.00547757  0.22317540     1.07270
C12         C  0.32461376  0.27670531  0.08437458     1.07140
O13         O  0.27904364  0.01275034  0.11134773    -0.82450
O14         O  0.33858426  0.02483118  0.25417474    -0.82520
O15         O  0.99015801  0.07754421  0.13520124    -0.82460
O16         O  0.25479380  0.33803195  0.19708135    -0.82440
O17         O  0.28599854  0.31052254  0.24516283    -0.82490
O18         O  0.01127456  0.03998512  0.09204718    -0.82460
O19         O  0.24237708  0.29985008  0.13360792    -0.82420
O20         O  0.98908756  0.07197801  0.21145912    -0.82490
Co21       Co  0.99909095  0.99246023  0.12099746     1.51530
Co22       Co  0.33948587  0.30970346  0.22660870     1.51690
Co23       Co  0.02425687  0.05309367  0.17199009     1.51570
Co24       Co  0.28570400  0.30818037  0.15991507     1.51470
O25         O  0.99692969  0.33605505  0.17544232    -1.44380
C26         C  0.24951222  0.32823938  0.10931520     1.07170
C27         C  0.99445823  0.05967669  0.24548274     1.07260
C28         C  0.99869050  0.07208831  0.10083128     1.07200
C29         C  0.25714033  0.32826610  0.23265895     1.07170
O30         O  0.01363485  0.09388246  0.03896928    -0.82450
O31         O  0.29007090  0.24633113  0.31239655    -0.82470
O32         O  0.99245341  0.21255692  0.07100777    -0.82480
O33         O  0.24542347  0.13322460  0.30106590    -0.82420
O34         O  0.34453697  0.25438649  0.02388420    -0.82540
O35         O  0.28458475  0.10771595  0.00939672    -0.82460
O36         O  0.25834684  0.19816592  0.34081979    -0.82450
O37         O  0.99254688  0.13657225  0.07758377    -0.82480
C38         C  0.99996556  0.10236365  0.07120695     1.07240
C39         C  0.26134412  0.23390089  0.33146084     1.07190
C40         C  0.99757029  0.24639500  0.05829913     1.07270
C41         C  0.25524590  0.10548846  0.32496094     1.07140
O42         O  0.00771634  0.07416350  0.30560403    -0.82450
O43         O  0.06265742  0.21086142  0.30566746    -0.82520
O44         O  0.06662834  0.13294030  0.03778547    -0.82460
O45         O  0.28220122  0.19822982  0.26137945    -0.82440
O46         O  0.34064650  0.20451354  0.25880373    -0.82490
O47         O  0.05714989  0.12835721  0.97689686    -0.82460
O48         O  0.31418022  0.12194244  0.27031363    -0.82420
O49         O  0.06646578  0.21062702  0.03436790    -0.82490
Co50       Co  0.00434471  0.12232688  0.99036123     1.51530
Co51       Co  0.34312004  0.22651292  0.30864741     1.51690
Co52       Co  0.02721723  0.17315101  0.05238297     1.51570
Co53       Co  0.28798435  0.16058729  0.30954891     1.51470
O54         O  0.33293346  0.17591447  0.33570936    -1.44380
C55         C  0.32686044  0.08637380  0.27504211     1.07170
C56         C  0.07962569  0.21941724  0.00023392     1.07260
C57         C  0.07635735  0.11976403  0.00543685     1.07200
C58         C  0.31068543  0.21195491  0.24338506     1.07170
O59         O  0.24617850  0.01168524  0.04289947    -0.82450
O60         O  0.08544760  0.28405494  0.32346981    -0.82470
O61         O  0.12064596  0.03203797  0.07502933    -0.82480
O62         O  0.20968674  0.26300060  0.30489376    -0.82420
O63         O  0.09640653  0.31417758  0.05813127    -0.82540
O64         O  0.22422296  0.28559319  0.02471017    -0.82460
O65         O  0.13731468  0.24964725  0.32029943    -0.82450
O66         O  0.19308862  0.01164676  0.07542159    -0.82480
C67         C  0.22823414  0.00639754  0.07550202     1.07240
C68         C  0.10278246  0.25222868  0.32646743     1.07130
C69         C  0.09986830  0.00420044  0.08303361     1.07270
C70         C  0.22889416  0.26093254  0.33337989     1.07140
O71         O  0.23340777  0.00181710  0.29541995    -0.82450
O72         O  0.08277421  0.05387402  0.35210387    -0.82520
O73         O  0.19971501  0.07170068  0.99737532    -0.82460
O74         O  0.12114333  0.30558387  0.25734676    -0.82440
O75         O  0.09393829  0.35621234  0.28229305    -0.82490
O76         O  0.24836161  0.03878026  0.01372361    -0.82460
O77         O  0.19328667  0.32743378  0.25317121    -0.82420
O78         O  0.13245015  0.08165699  0.00069678    -0.82490
Co79       Co  0.20425714  0.00656312  0.01207473     1.51530
Co80       Co  0.09656002  0.33495845  0.33690198     1.51690
Co81       Co  0.16145332  0.04376734  0.03362837     1.51570
Co82       Co  0.16433216  0.29083475  0.28831683     1.51470
O83         O  0.15398875  0.99698142  0.33122260    -1.44380
C84         C  0.22575637  0.33289549  0.26101892     1.07170
C85         C  0.09843771  0.08366020  0.00686422     1.07260
C86         C  0.23386115  0.07099868  0.00088773     1.07200
C87         C  0.09902021  0.33453268  0.25496956     1.07170
O88         O  0.05173736  0.97719320  0.45712007    -0.82450
O89         O  0.33965190  0.26025108  0.53711893    -0.82470
O90         O  0.06203446  0.03836540  0.54437379    -0.82480
O91         O  0.31296100  0.27073380  0.45379332    -0.82420
O92         O  0.05973969  0.30954943  0.54725497    -0.82540
O93         O  0.00010838  0.30942330  0.40472372    -0.82460
O94         O  0.28138433  0.25955629  0.53092905    -0.82450
O95         O  0.06460935  0.03678518  0.46480815    -0.82480
C96         C  0.07286582  0.00475592  0.45012294     1.07240
C97         C  0.31027210  0.24331705  0.54478241     1.07130
C98         C  0.07441803  0.00543234  0.55647053     1.07270
C99         C  0.32455634  0.27672246  0.41766240     1.07140
O100        O  0.27897394  0.01284846  0.44473966    -0.82450
O101        O  0.33868158  0.02481519  0.58746812    -0.82520
O102        O  0.99025135  0.07757116  0.46850498    -0.82460
O103        O  0.25482841  0.33802329  0.53040380    -0.82440
O104        O  0.28606271  0.31054389  0.57847939    -0.82490
O105        O  0.01128140  0.04000394  0.42532722    -0.82460
O106        O  0.24238264  0.29986530  0.46691850    -0.82420
O107        O  0.98921188  0.07200676  0.54474680    -0.82490
Co108      Co  0.99905526  0.99250248  0.45427909     1.51530
Co109      Co  0.33954906  0.30969436  0.55990049     1.51690
Co110      Co  0.02434678  0.05308382  0.50527384     1.51570
Co111      Co  0.28572736  0.30817565  0.49322594     1.51470
O112        O  0.99696970  0.33608792  0.50874226    -1.44380
C113        C  0.24947804  0.32829070  0.44265729     1.07170
C114        C  0.99453942  0.05968696  0.57877476     1.07260
C115        C  0.99875001  0.07211598  0.43412983     1.07200
C116        C  0.25718584  0.32825624  0.56597990     1.07170
O117        O  0.01369743  0.09391378  0.37227498    -0.82450
O118        O  0.29005659  0.24630180  0.64571863    -0.82470
O119        O  0.99254400  0.21257671  0.40434367    -0.82480
O120        O  0.24545689  0.13317300  0.63433552    -0.82420
O121        O  0.34456012  0.25439812  0.35718653    -0.82540
O122        O  0.28463157  0.10769654  0.34270835    -0.82460
O123        O  0.25833366  0.19811912  0.67410853    -0.82450
O124        O  0.99264006  0.13660105  0.41090670    -0.82480
C125        C  0.00004153  0.10239455  0.40451718     1.07240
C126        C  0.26133511  0.23385957  0.66477950     1.07190
C127        C  0.99760995  0.24642025  0.39161666     1.07270
C128        C  0.25526826  0.10544592  0.65824596     1.07140
O129        O  0.00764727  0.07413546  0.63895480    -0.82450
O130        O  0.06266184  0.21084778  0.63900245    -0.82520
O131        O  0.06669736  0.13296325  0.37105707    -0.82460
O132        O  0.28222264  0.19820370  0.59467816    -0.82440
O133        O  0.34066201  0.20452021  0.59213416    -0.82490
O134        O  0.05717753  0.12839366  0.31017865    -0.82460
O135        O  0.31424398  0.12191990  0.60362345    -0.82420
O136        O  0.06652398  0.21065139  0.36764212    -0.82490
Co137      Co  0.00437861  0.12235057  0.32367471     1.51530
Co138      Co  0.34310379  0.22650634  0.64199125     1.51690
Co139      Co  0.02729400  0.17317478  0.38568445     1.51570
Co140      Co  0.28800032  0.16055359  0.64284546     1.51470
O141        O  0.33291786  0.17589863  0.66904273    -1.44380
C142        C  0.32694762  0.08635825  0.60835088     1.07170
C143        C  0.07966278  0.21942915  0.33349990     1.07260
C144        C  0.07640062  0.11978554  0.33870342     1.07200
C145        C  0.31070583  0.21195012  0.57670144     1.07170
O146        O  0.24617866  0.01168153  0.37623129    -0.82450
O147        O  0.08544578  0.28405860  0.65680213    -0.82470
O148        O  0.12064324  0.03202553  0.40827677    -0.82480
O149        O  0.20967359  0.26295122  0.63824507    -0.82420
O150        O  0.09644817  0.31412164  0.39140890    -0.82540
O151        O  0.22420246  0.28556503  0.35803599    -0.82460
O152        O  0.13730550  0.24964016  0.65367600    -0.82450
O153        O  0.19307458  0.01169087  0.40872518    -0.82480
C154        C  0.22821717  0.00642834  0.40882808     1.07240
C155        C  0.10277169  0.25222649  0.65982355     1.07130
C156        C  0.09987743  0.00417517  0.41627623     1.07270
C157        C  0.22889328  0.26089313  0.66671648     1.07140
O158        O  0.23341888  0.00178432  0.62875244    -0.82450
O159        O  0.08276661  0.05384627  0.68542245    -0.82520
O160        O  0.19974848  0.07170250  0.33066488    -0.82460
O161        O  0.12116754  0.30553814  0.59067448    -0.82440
O162        O  0.09399636  0.35620249  0.61557814    -0.82490
O163        O  0.24837979  0.03877011  0.34704531    -0.82460
O164        O  0.19332817  0.32735855  0.58649429    -0.82420
O165        O  0.13247352  0.08164870  0.33392406    -0.82490
Co166      Co  0.20426928  0.00656094  0.34538747     1.51530
Co167      Co  0.09658421  0.33497328  0.67020424     1.51690
Co168      Co  0.16146243  0.04378116  0.36689456     1.51570
Co169      Co  0.16434194  0.29080025  0.62166705     1.51470
O170        O  0.15398896  0.99695896  0.66456917    -1.44380
C171        C  0.22579371  0.33284854  0.59434288     1.07170
C172        C  0.09846451  0.08366866  0.34011624     1.07260
C173        C  0.23389190  0.07099158  0.33420030     1.07200
C174        C  0.09907173  0.33450632  0.58826688     1.07170
O175        O  0.05180864  0.97718889  0.79057194    -0.82450
O176        O  0.33962770  0.26027159  0.87049120    -0.82470
O177        O  0.06197108  0.03837637  0.87777107    -0.82480
O178        O  0.31293831  0.27074463  0.78714533    -0.82420
O179        O  0.05972197  0.30952835  0.88063034    -0.82540
O180        O  0.00022340  0.30937215  0.73808026    -0.82460
O181        O  0.28136395  0.25957366  0.86428220    -0.82450
O182        O  0.06460392  0.03681144  0.79819339    -0.82480
C183        C  0.07289808  0.00477585  0.78352934     1.07240
C184        C  0.31024878  0.24333464  0.87814287     1.07130
C185        C  0.07436479  0.00544845  0.88987151     1.07270
C186        C  0.32459205  0.27671319  0.75102781     1.07140
O187        O  0.27905774  0.01274226  0.77799603    -0.82450
O188        O  0.33855592  0.02482915  0.92085540    -0.82520
O189        O  0.99021262  0.07754260  0.80185508    -0.82460
O190        O  0.25479432  0.33804535  0.86375621    -0.82440
O191        O  0.28600392  0.31054367  0.91183606    -0.82490
O192        O  0.01131155  0.03997850  0.75869766    -0.82460
O193        O  0.24237788  0.29987441  0.80027350    -0.82420
O194        O  0.98913023  0.07196844  0.87811525    -0.82490
Co195      Co  0.99912977  0.99244707  0.78764570     1.51530
Co196      Co  0.33949471  0.30971341  0.89327619     1.51690
Co197      Co  0.02429909  0.05307509  0.83864936     1.51570
Co198      Co  0.28570778  0.30819674  0.82658140     1.51470
O199        O  0.99696853  0.33605283  0.84209022    -1.44380
C200        C  0.24951592  0.32825810  0.77597481     1.07170
C201        C  0.99447546  0.05966069  0.91214365     1.07260
C202        C  0.99873582  0.07208467  0.76748360     1.07200
C203        C  0.25713651  0.32827057  0.89933371     1.07170
O204        O  0.01365490  0.09387885  0.70561256    -0.82450
O205        O  0.29005893  0.24633471  0.97908005    -0.82470
O206        O  0.99249760  0.21255754  0.73764836    -0.82480
O207        O  0.24539218  0.13322934  0.96773358    -0.82420
O208        O  0.34451422  0.25439142  0.69053347    -0.82540
O209        O  0.28465108  0.10765214  0.67599749    -0.82460
O210        O  0.25832535  0.19816997  0.00749039    -0.82450
O211        O  0.99258999  0.13657148  0.74423004    -0.82480
C212        C  0.00000268  0.10236106  0.73785539     1.07240
C213        C  0.26133336  0.23390564  0.99814637     1.07190
C214        C  0.99760314  0.24639779  0.72493816     1.07270
C215        C  0.25520770  0.10549976  0.99164038     1.07140
O216        O  0.00767683  0.07413759  0.97228963    -0.82450
O217        O  0.06264440  0.21084728  0.97238368    -0.82520
O218        O  0.06665895  0.13293646  0.70439508    -0.82460
O219        O  0.28219008  0.19824030  0.92804988    -0.82440
O220        O  0.34063678  0.20452743  0.92548755    -0.82490
O221        O  0.05714636  0.12833637  0.64351762    -0.82460
O222        O  0.31415811  0.12194276  0.93699264    -0.82420
O223        O  0.06649950  0.21062889  0.70098306    -0.82490
Co224      Co  0.00434148  0.12232898  0.65701245     1.51530
Co225      Co  0.34310312  0.22651156  0.97534221     1.51690
Co226      Co  0.02725480  0.17315098  0.71901012     1.51570
Co227      Co  0.28795780  0.16059125  0.97621969     1.51470
O228        O  0.33290145  0.17590881  0.00239428    -1.44380
C229        C  0.32682765  0.08637078  0.94172602     1.07170
C230        C  0.07964940  0.21942075  0.66684570     1.07260
C231        C  0.07637081  0.11975155  0.67204614     1.07200
C232        C  0.31067731  0.21196922  0.91006307     1.07170
O233        O  0.24619531  0.01166250  0.70954653    -0.82450
O234        O  0.08541855  0.28405375  0.99021547    -0.82470
O235        O  0.12066058  0.03203273  0.74164192    -0.82480
O236        O  0.20965521  0.26297493  0.97161787    -0.82420
O237        O  0.09643166  0.31416817  0.72472930    -0.82540
O238        O  0.22422869  0.28554321  0.69135639    -0.82460
O239        O  0.13728316  0.24964102  0.98706953    -0.82450
O240        O  0.19310199  0.01164547  0.74205871    -0.82480
C241        C  0.22824689  0.00639018  0.74214777     1.07240
C242        C  0.10274872  0.25222337  0.99322210     1.07130
C243        C  0.09988111  0.00419678  0.74965037     1.07270
C244        C  0.22889017  0.26093893  0.00007625     1.07140
O245        O  0.23337991  0.00182535  0.96209480    -0.82450
O246        O  0.08274855  0.05386065  0.01883185    -0.82520
O247        O  0.19975516  0.07167796  0.66400011    -0.82460
O248        O  0.12112579  0.30552787  0.92407410    -0.82440
O249        O  0.09394430  0.35619098  0.94897345    -0.82490
O250        O  0.24839126  0.03874150  0.68036184    -0.82460
O251        O  0.19327852  0.32736740  0.91986251    -0.82420
O252        O  0.13247240  0.08165031  0.66731455    -0.82490
Co253      Co  0.20427533  0.00654386  0.67871586     1.51530
Co254      Co  0.09654735  0.33497404  0.00360346     1.51690
Co255      Co  0.16147538  0.04375912  0.70024913     1.51570
Co256      Co  0.16430893  0.29080573  0.95505279     1.51470
O257        O  0.15396541  0.99697380  0.99794345    -1.44380
C258        C  0.22574367  0.33287626  0.92769852     1.07170
C259        C  0.09845700  0.08364886  0.67346775     1.07260
C260        C  0.23390375  0.07096053  0.66751036     1.07200
C261        C  0.09902806  0.33449340  0.92166285     1.07170
O262        O  0.05186379  0.31054897  0.12398979    -0.82450
O263        O  0.33960685  0.59361791  0.20381345    -0.82470
O264        O  0.06196945  0.37173384  0.21113083    -0.82480
O265        O  0.31290249  0.60409893  0.12049750    -0.82420
O266        O  0.05969212  0.64288703  0.21395925    -0.82540
O267        O  0.00002009  0.64276820  0.07141464    -0.82460
O268        O  0.28133797  0.59292004  0.19763764    -0.82450
O269        O  0.06461130  0.37019203  0.13157210    -0.82480
C270        C  0.07293004  0.33815125  0.11692847     1.07240
C271        C  0.31023027  0.57668191  0.21148548     1.07130
C272        C  0.07438457  0.33880562  0.22320439     1.07270
C273        C  0.32450980  0.61008264  0.08436934     1.07140
O274        O  0.27914495  0.34602607  0.11129024    -0.82450
O275        O  0.33860613  0.35816975  0.25420281    -0.82520
O276        O  0.99020320  0.41087838  0.13522478    -0.82460
O277        O  0.25478038  0.67140317  0.19710563    -0.82440
O278        O  0.28600047  0.64389499  0.24517436    -0.82490
O279        O  0.01134062  0.37332503  0.09206807    -0.82460
O280        O  0.24232704  0.63323376  0.13362835    -0.82420
O281        O  0.98911123  0.40530830  0.21148642    -0.82490
Co282      Co  0.99918884  0.32577402  0.12101209     1.51530
Co283      Co  0.33948529  0.64305795  0.22659759     1.51690
Co284      Co  0.02429239  0.38643258  0.17202043     1.51570
Co285      Co  0.28567331  0.64154345  0.15993025     1.51470
O286        O  0.99692296  0.66941149  0.17543253    -1.44380
C287        C  0.24943201  0.66164951  0.10935784     1.07170
C288        C  0.99448086  0.39300967  0.24551080     1.07260
C289        C  0.99875639  0.40543061  0.10085650     1.07200
C290        C  0.25713624  0.66163600  0.23268148     1.07170
O291        O  0.01372793  0.42725209  0.03900366    -0.82450
O292        O  0.29006607  0.57968996  0.31243431    -0.82470
O293        O  0.99249457  0.54592033  0.07103670    -0.82480
O294        O  0.24543594  0.46657825  0.30109985    -0.82420
O295        O  0.34453192  0.58775766  0.02390377    -0.82540
O296        O  0.28465488  0.44105206  0.00943122    -0.82460
O297        O  0.25835198  0.53151762  0.34085521    -0.82450
O298        O  0.99264477  0.46993021  0.07763503    -0.82480
C299        C  0.00005680  0.43572238  0.07124428     1.07240
C300        C  0.26133982  0.56725373  0.33149477     1.07190
C301        C  0.99755600  0.57976500  0.05831271     1.07270
C302        C  0.25526520  0.43883987  0.32498861     1.07140
O303        O  0.00774753  0.40750877  0.30562935    -0.82450
O304        O  0.06265614  0.54422175  0.30569497    -0.82520
O305        O  0.06671065  0.46634149  0.03780514    -0.82460
O306        O  0.28220029  0.53158611  0.26141334    -0.82440
O307        O  0.34064302  0.53789566  0.25882818    -0.82490
O308        O  0.05721457  0.46175114  0.97692435    -0.82460
O309        O  0.31419360  0.45528846  0.27034652    -0.82420
O310        O  0.06649475  0.54403239  0.03435542    -0.82490
Co311      Co  0.00441263  0.45569198  0.99039478     1.51530
Co312      Co  0.34311736  0.55987472  0.30868420     1.51690
Co313      Co  0.02727884  0.50653506  0.05240501     1.51570
Co314      Co  0.28799445  0.49394049  0.30958173     1.51470
O315        O  0.33294346  0.50926671  0.33574098    -1.44380
C316        C  0.32687974  0.41971964  0.27507393     1.07170
C317        C  0.07964216  0.55279236  0.00021090     1.07260
C318        C  0.07643225  0.45315992  0.00545721     1.07200
C319        C  0.31067655  0.54532428  0.24341429     1.07170
O320        O  0.24623017  0.34502429  0.04288765    -0.82450
O321        O  0.08544394  0.61740972  0.32349745    -0.82470
O322        O  0.12070015  0.36539393  0.07505178    -0.82480
O323        O  0.20968929  0.59635937  0.30491120    -0.82420
O324        O  0.09638857  0.64748867  0.05805556    -0.82540
O325        O  0.22416316  0.61890441  0.02474430    -0.82460
O326        O  0.13731328  0.58300365  0.32032299    -0.82450
O327        O  0.19314993  0.34493651  0.07542761    -0.82480
C328        C  0.22829794  0.33970771  0.07549391     1.07240
C329        C  0.10278115  0.58558529  0.32649615     1.07130
C330        C  0.09989959  0.33757698  0.08304298     1.07270
C331        C  0.22888212  0.59427876  0.33340927     1.07140
O332        O  0.23342098  0.33517249  0.29539959    -0.82450
O333        O  0.08280258  0.38722161  0.35211732    -0.82520
O334        O  0.19977262  0.40505698  0.99742748    -0.82460
O335        O  0.12114330  0.63892266  0.25735887    -0.82440
O336        O  0.09392368  0.68955290  0.28228800    -0.82490
O337        O  0.24842224  0.37212022  0.01373247    -0.82460
O338        O  0.19328200  0.66079835  0.25319911    -0.82420
O339        O  0.13252817  0.41504644  0.00077527    -0.82490
Co340      Co  0.20430256  0.33992906  0.01205915     1.51530
Co341      Co  0.09654320  0.66832065  0.33690982     1.51690
Co342      Co  0.16151357  0.37710287  0.03366596     1.51570
Co343      Co  0.16432910  0.62419245  0.28834075     1.51470
O344        O  0.15401574  0.33031864  0.33123790    -1.44380
C345        C  0.22575296  0.66625418  0.26104832     1.07170
C346        C  0.09850881  0.41704844  0.00688193     1.07260
C347        C  0.23392084  0.40434769  0.00092474     1.07200
C348        C  0.09901712  0.66786788  0.25496777     1.07170
O349        O  0.05182409  0.31054146  0.45720687    -0.82450
O350        O  0.33962903  0.59360951  0.53714995    -0.82470
O351        O  0.06206810  0.37172364  0.54439270    -0.82480
O352        O  0.31292798  0.60408033  0.45382622    -0.82420
O353        O  0.05967907  0.64289879  0.54728172    -0.82540
O354        O  0.00005984  0.64275787  0.40474865    -0.82460
O355        O  0.28136267  0.59288947  0.53096412    -0.82450
O356        O  0.06465033  0.37015543  0.46483532    -0.82480
C357        C  0.07292874  0.33811701  0.45017571     1.07240
C358        C  0.31025844  0.57666016  0.54481350     1.07130
C359        C  0.07445628  0.33879016  0.55648085     1.07270
C360        C  0.32454904  0.61006508  0.41770199     1.07140
O361        O  0.27907610  0.34611718  0.44467996    -0.82450
O362        O  0.33872504  0.35816286  0.58749575    -0.82520
O363        O  0.99027769  0.41091064  0.46853046    -0.82460
O364        O  0.25477787  0.67137068  0.53042923    -0.82440
O365        O  0.28599241  0.64386262  0.57850034    -0.82490
O366        O  0.01134275  0.37334597  0.42535744    -0.82460
O367        O  0.24234492  0.63319346  0.46695579    -0.82420
O368        O  0.98924483  0.40536789  0.54478408    -0.82490
Co369      Co  0.99914813  0.32582219  0.45429987     1.51530
Co370      Co  0.33947620  0.64305655  0.55992718     1.51690
Co371      Co  0.02437787  0.38644175  0.50530038     1.51570
Co372      Co  0.28568276  0.64151688  0.49325848     1.51470
O373        O  0.99691559  0.66940434  0.50875944    -1.44380
C374        C  0.24944883  0.66161295  0.44268922     1.07170
C375        C  0.99458402  0.39305065  0.57881150     1.07260
C376        C  0.99878593  0.40545375  0.43415686     1.07200
C377        C  0.25713115  0.66160671  0.56600562     1.07170
O378        O  0.01372142  0.42725835  0.37230059    -0.82450
O379        O  0.29006419  0.57967033  0.64574205    -0.82470
O380        O  0.99252882  0.54591307  0.40436218    -0.82480
O381        O  0.24551383  0.46652621  0.63441587    -0.82420
O382        O  0.34455609  0.58774767  0.35722844    -0.82540
O383        O  0.28464949  0.44104977  0.34273800    -0.82460
O384        O  0.25836724  0.53148591  0.67416307    -0.82450
O385        O  0.99265183  0.46993896  0.41093325    -0.82480
C386        C  0.00006362  0.43573376  0.40454329     1.07240
C387        C  0.26134060  0.56722550  0.66480024     1.07190
C388        C  0.99758691  0.57975849  0.39163992     1.07270
C389        C  0.25534692  0.43878756  0.65830127     1.07140
O390        O  0.00776576  0.40751813  0.63897259    -0.82450
O391        O  0.06264707  0.54420790  0.63903176    -0.82520
O392        O  0.06671636  0.46632063  0.37109604    -0.82460
O393        O  0.28223937  0.53154645  0.59473195    -0.82440
O394        O  0.34067453  0.53787919  0.59215775    -0.82490
O395        O  0.05720641  0.46174124  0.31021693    -0.82460
O396        O  0.31428811  0.45527224  0.60367634    -0.82420
O397        O  0.06651879  0.54401174  0.36767132    -0.82490
Co398      Co  0.00440355  0.45569712  0.32370028     1.51530
Co399      Co  0.34312122  0.55987195  0.64200990     1.51690
Co400      Co  0.02729720  0.50652443  0.38571226     1.51570
Co401      Co  0.28804663  0.49391161  0.64290691     1.51470
O402        O  0.33296928  0.50926583  0.66908046    -1.44380
C403        C  0.32702038  0.41971719  0.60838713     1.07170
C404        C  0.07966050  0.55278748  0.33352922     1.07260
C405        C  0.07642721  0.45313866  0.33874556     1.07200
C406        C  0.31071133  0.54529629  0.57673676     1.07170
O407        O  0.24622812  0.34501459  0.37620899    -0.82450
O408        O  0.08543828  0.61739278  0.65676004    -0.82470
O409        O  0.12069993  0.36536660  0.40831503    -0.82480
O410        O  0.20968149  0.59633549  0.63822244    -0.82420
O411        O  0.09641717  0.64750220  0.39142616    -0.82540
O412        O  0.22417004  0.61889864  0.35807603    -0.82460
O413        O  0.13730682  0.58298815  0.65361708    -0.82450
O414        O  0.19313736  0.34498147  0.40872700    -0.82480
C415        C  0.22828272  0.33973223  0.40881183     1.07240
C416        C  0.10277610  0.58557308  0.65979387     1.07130
C417        C  0.09991987  0.33753115  0.41631348     1.07270
C418        C  0.22887706  0.59425034  0.66672113     1.07140
O419        O  0.23345271  0.33514654  0.62872142    -0.82450
O420        O  0.08282663  0.38724075  0.68539353    -0.82520
O421        O  0.19977745  0.40504179  0.33069153    -0.82460
O422        O  0.12113846  0.63893261  0.59065808    -0.82440
O423        O  0.09391510  0.68954998  0.61560980    -0.82490
O424        O  0.24841836  0.37211233  0.34704005    -0.82460
O425        O  0.19327693  0.66079016  0.58651280    -0.82420
O426        O  0.13251276  0.41500962  0.33400046    -0.82490
Co427      Co  0.20430480  0.33990762  0.34537714     1.51530
Co428      Co  0.09653049  0.66828315  0.67021642     1.51690
Co429      Co  0.16150875  0.37710617  0.36692892     1.51570
Co430      Co  0.16432319  0.62417669  0.62163929     1.51470
O431        O  0.15404057  0.33032109  0.66456321    -1.44380
C432        C  0.22574786  0.66623248  0.59436877     1.07170
C433        C  0.09849927  0.41702239  0.34016339     1.07260
C434        C  0.23392145  0.40433645  0.33421570     1.07200
C435        C  0.09900857  0.66787733  0.58828089     1.07170
O436        O  0.05188509  0.31053826  0.79059470    -0.82450
O437        O  0.33960326  0.59360296  0.87047270    -0.82470
O438        O  0.06203947  0.37170456  0.87776965    -0.82480
O439        O  0.31289165  0.60408931  0.78714809    -0.82420
O440        O  0.05970003  0.64287752  0.88059318    -0.82540
O441        O  0.99993858  0.64278811  0.73805409    -0.82460
O442        O  0.28133333  0.59290625  0.86430023    -0.82450
O443        O  0.06466049  0.37016792  0.79819716    -0.82480
C444        C  0.07296087  0.33813361  0.78353577     1.07240
C445        C  0.31022524  0.57667027  0.87815222     1.07130
C446        C  0.07442609  0.33877292  0.88986556     1.07270
C447        C  0.32447023  0.61008392  0.75101239     1.07140
O448        O  0.27914222  0.34605288  0.77796134    -0.82450
O449        O  0.33863048  0.35818067  0.92086995    -0.82520
O450        O  0.99027146  0.41088225  0.80187899    -0.82460
O451        O  0.25478041  0.67138797  0.86376693    -0.82440
O452        O  0.28601009  0.64389086  0.91183428    -0.82490
O453        O  0.01136602  0.37332530  0.75870804    -0.82460
O454        O  0.24231289  0.63322685  0.80028661    -0.82420
O455        O  0.98920545  0.40532165  0.87814013    -0.82490
Co456      Co  0.99920620  0.32577824  0.78764975     1.51530
Co457      Co  0.33949265  0.64304836  0.89324652     1.51690
Co458      Co  0.02436215  0.38641890  0.83866254     1.51570
Co459      Co  0.28566619  0.64152828  0.82658744     1.51470
O460        O  0.99692228  0.66940906  0.84208011    -1.44380
C461        C  0.24940303  0.66165696  0.77602862     1.07170
C462        C  0.99455240  0.39301409  0.91216842     1.07260
C463        C  0.99880132  0.40543338  0.76750673     1.07200
C464        C  0.25714108  0.66162322  0.89934242     1.07170
O465        O  0.01375369  0.42725922  0.70565191    -0.82450
O466        O  0.29005362  0.57969010  0.97910705    -0.82470
O467        O  0.99253662  0.54591761  0.73770612    -0.82480
O468        O  0.24543836  0.46657846  0.96779245    -0.82420
O469        O  0.34452865  0.58776344  0.69054939    -0.82540
O470        O  0.28474705  0.44098007  0.67603298    -0.82460
O471        O  0.25834803  0.53151862  0.00754097    -0.82450
O472        O  0.99268565  0.46993179  0.74429409    -0.82480
C473        C  0.00009447  0.43572597  0.73789758     1.07240
C474        C  0.26133139  0.56725404  0.99817453     1.07190
C475        C  0.99756949  0.57976604  0.72497318     1.07270
C476        C  0.25526709  0.43884531  0.99168686     1.07140
O477        O  0.00776933  0.40750322  0.97231402    -0.82450
O478        O  0.06264131  0.54421479  0.97238010    -0.82520
O479        O  0.06674352  0.46634029  0.70443424    -0.82460
O480        O  0.28219519  0.53158419  0.92809506    -0.82440
O481        O  0.34063687  0.53789522  0.92550700    -0.82490
O482        O  0.05722199  0.46175635  0.64355950    -0.82460
O483        O  0.31420291  0.45529302  0.93703585    -0.82420
O484        O  0.06651884  0.54403128  0.70100216    -0.82490
Co485      Co  0.00441998  0.45570574  0.65705275     1.51530
Co486      Co  0.34310394  0.55987650  0.97536369     1.51690
Co487      Co  0.02731346  0.50653462  0.71905668     1.51570
Co488      Co  0.28799401  0.49394298  0.97626891     1.51470
O489        O  0.33293676  0.50927151  0.00243050    -1.44380
C490        C  0.32689989  0.41972724  0.94175654     1.07170
C491        C  0.07965776  0.55278344  0.66685486     1.07260
C492        C  0.07645341  0.45316127  0.67208146     1.07200
C493        C  0.31067073  0.54532003  0.91009139     1.07170
O494        O  0.24626182  0.34497786  0.70953093    -0.82450
O495        O  0.08543445  0.61740862  0.99011029    -0.82470
O496        O  0.12072370  0.36538613  0.74165116    -0.82480
O497        O  0.20967803  0.59634459  0.97159038    -0.82420
O498        O  0.09640887  0.64743348  0.72471948    -0.82540
O499        O  0.22416957  0.61887253  0.69138908    -0.82460
O500        O  0.13730012  0.58299816  0.98699696    -0.82450
O501        O  0.19317180  0.34495390  0.74205541    -0.82480
C502        C  0.22831760  0.33970066  0.74213475     1.07240
C503        C  0.10276684  0.58558505  0.99315751     1.07130
C504        C  0.09992568  0.33756534  0.74964305     1.07270
C505        C  0.22887236  0.59427531  0.00008654     1.07140
O506        O  0.23340658  0.33519849  0.96207269    -0.82450
O507        O  0.08279761  0.38724367  0.01878675    -0.82520
O508        O  0.19983174  0.40503325  0.66404690    -0.82460
O509        O  0.12114720  0.63890591  0.92400293    -0.82440
O510        O  0.09393850  0.68955024  0.94891504    -0.82490
O511        O  0.24846773  0.37206872  0.68036044    -0.82460
O512        O  0.19328762  0.66076934  0.91985540    -0.82420
O513        O  0.13255542  0.41504441  0.66737376    -0.82490
Co514      Co  0.20433811  0.33988913  0.67869741     1.51530
Co515      Co  0.09653501  0.66831231  0.00353878     1.51690
Co516      Co  0.16154519  0.37710362  0.70027315     1.51570
Co517      Co  0.16432503  0.62417469  0.95500118     1.51470
O518        O  0.15400433  0.33032910  0.99794749    -1.44380
C519        C  0.22575591  0.66623302  0.92770807     1.07170
C520        C  0.09853511  0.41704821  0.67349094     1.07260
C521        C  0.23398221  0.40430222  0.66754711     1.07200
C522        C  0.09902940  0.66785830  0.92159978     1.07170
O523        O  0.05176793  0.64388446  0.12386472    -0.82450
O524        O  0.33959686  0.92692246  0.20381020    -0.82470
O525        O  0.06200482  0.70506505  0.21108228    -0.82480
O526        O  0.31289697  0.93739936  0.12048658    -0.82420
O527        O  0.05966527  0.97622129  0.21395465    -0.82540
O528        O  0.00006529  0.97606636  0.07142466    -0.82460
O529        O  0.28132855  0.92621430  0.19762780    -0.82450
O530        O  0.06459273  0.70349597  0.13151473    -0.82480
C531        C  0.07287038  0.67146468  0.11683811     1.07240
C532        C  0.31022195  0.90998163  0.21147927     1.07130
C533        C  0.07439869  0.67213654  0.22318133     1.07270
C534        C  0.32452873  0.94338455  0.08436532     1.07140
O535        O  0.27903571  0.67946991  0.11137339    -0.82450
O536        O  0.33863269  0.69152372  0.25418140    -0.82520
O537        O  0.99021617  0.74423909  0.13520340    -0.82460
O538        O  0.25476483  0.00469785  0.19709281    -0.82440
O539        O  0.28597852  0.97718427  0.24516480    -0.82490
O540        O  0.01127873  0.70667032  0.09203516    -0.82460
O541        O  0.24231832  0.96652881  0.13361287    -0.82420
O542        O  0.98917128  0.73867997  0.21146943    -0.82490
Co543      Co  0.99908438  0.65915729  0.12098939     1.51530
Co544      Co  0.33946063  0.97636434  0.22659381     1.51690
Co545      Co  0.02431445  0.71977257  0.17198391     1.51570
Co546      Co  0.28565874  0.97483921  0.15992066     1.51470
O547        O  0.99689430  0.00271923  0.17543229    -1.44380
C548        C  0.24943143  0.99494225  0.10934153     1.07170
C549        C  0.99453063  0.72636966  0.24549473     1.07260
C550        C  0.99873126  0.73878051  0.10082975     1.07200
C551        C  0.25712189  0.99493739  0.23266957     1.07170
O552        O  0.01370677  0.76058131  0.03897347    -0.82450
O553        O  0.29005400  0.91300812  0.31242126    -0.82470
O554        O  0.99249857  0.87922950  0.07103017    -0.82480
O555        O  0.24545721  0.79988606  0.30112243    -0.82420
O556        O  0.34453420  0.92106908  0.02389002    -0.82540
O557        O  0.28466595  0.77434604  0.00937083    -0.82460
O558        O  0.25835170  0.86483737  0.34086355    -0.82450
O559        O  0.99261576  0.80326191  0.07759749    -0.82480
C560        C  0.00003074  0.76905735  0.07121185     1.07240
C561        C  0.26132997  0.90057275  0.33148744     1.07190
C562        C  0.99756486  0.91307308  0.05830849     1.07270
C563        C  0.25529412  0.77214735  0.32500633     1.07140
O564        O  0.00779960  0.74085071  0.30562146    -0.82450
O565        O  0.06264879  0.87753631  0.30568112    -0.82520
O566        O  0.06669119  0.79964380  0.03777132    -0.82460
O567        O  0.28219466  0.86489655  0.26141991    -0.82440
O568        O  0.34063613  0.87120167  0.25882344    -0.82490
O569        O  0.05719766  0.79509554  0.97688485    -0.82460
O570        O  0.31421580  0.78862619  0.27035268    -0.82420
O571        O  0.06649094  0.87732078  0.03435271    -0.82490
Co572      Co  0.00440064  0.78902149  0.99036255     1.51530
Co573      Co  0.34310848  0.89319833  0.30866961     1.51690
Co574      Co  0.02726749  0.83984139  0.05238608     1.51570
Co575      Co  0.28800477  0.82726185  0.30959392     1.51470
O576        O  0.33294913  0.84260006  0.33574353    -1.44380
C577        C  0.32692827  0.75306644  0.27506326     1.07170
C578        C  0.07964030  0.88608538  0.00021233     1.07260
C579        C  0.07641439  0.78648486  0.00541315     1.07200
C580        C  0.31066926  0.87862791  0.24341152     1.07170
O581        O  0.24619353  0.67835438  0.04290730    -0.82450
O582        O  0.08544326  0.95072308  0.32341926    -0.82470
O583        O  0.12065187  0.69872120  0.07498031    -0.82480
O584        O  0.20968739  0.92968750  0.30488368    -0.82420
O585        O  0.09641098  0.98077939  0.05813512    -0.82540
O586        O  0.22416430  0.95222050  0.02473570    -0.82460
O587        O  0.13731306  0.91632082  0.32025920    -0.82450
O588        O  0.19309696  0.67833525  0.07541529    -0.82480
C589        C  0.22824193  0.67308441  0.07550761     1.07240
C590        C  0.10278235  0.91890320  0.32644026     1.07130
C591        C  0.09986129  0.67089124  0.08296815     1.07270
C592        C  0.22886822  0.92759709  0.33339482     1.07140
O593        O  0.23341676  0.66851536  0.29543234    -0.82450
O594        O  0.08280687  0.72059135  0.35210308    -0.82520
O595        O  0.19976477  0.73838190  0.99737623    -0.82460
O596        O  0.12113983  0.97227501  0.25731186    -0.82440
O597        O  0.09390334  0.02288247  0.28227199    -0.82490
O598        O  0.24839958  0.70543697  0.01372654    -0.82460
O599        O  0.19327168  0.99414512  0.25317664    -0.82420
O600        O  0.13249933  0.74836183  0.00066870    -0.82490
Co601      Co  0.20428010  0.67324780  0.01206207     1.51530
Co602      Co  0.09653195  0.00161566  0.33687582     1.51690
Co603      Co  0.16147973  0.71045594  0.03360582     1.51570
Co604      Co  0.16432604  0.95751984  0.28829193     1.51470
O605        O  0.15400076  0.66367751  0.33126058    -1.44380
C606        C  0.22574444  0.99957495  0.26103270     1.07170
C607        C  0.09848480  0.75037294  0.00681566     1.07260
C608        C  0.23391210  0.73766093  0.00088911     1.07200
C609        C  0.09899936  0.00121178  0.25494165     1.07170
O610        O  0.05178568  0.64389811  0.45721770    -0.82450
O611        O  0.33959103  0.92690597  0.53710944    -0.82470
O612        O  0.06196777  0.70507893  0.54442666    -0.82480
O613        O  0.31289000  0.93741433  0.45379774    -0.82420
O614        O  0.05970564  0.97619231  0.54723701    -0.82540
O615        O  0.99994386  0.97612616  0.40469785    -0.82460
O616        O  0.28131900  0.92622992  0.53094302    -0.82450
O617        O  0.06458497  0.70351785  0.46486334    -0.82480
C618        C  0.07287962  0.67148577  0.45019457     1.07240
C619        C  0.31020651  0.90998569  0.54479420     1.07130
C620        C  0.07437793  0.67215076  0.55650800     1.07270
C621        C  0.32445089  0.94341335  0.41765785     1.07140
O622        O  0.27905466  0.67943225  0.44469529    -0.82450
O623        O  0.33858563  0.69152673  0.58750246    -0.82520
O624        O  0.99019352  0.74423137  0.46852938    -0.82460
O625        O  0.25478708  0.00470899  0.53042286    -0.82440
O626        O  0.28602093  0.97720603  0.57848461    -0.82490
O627        O  0.01128446  0.70667194  0.42536546    -0.82460
O628        O  0.24230910  0.96656270  0.46693592    -0.82420
O629        O  0.98911462  0.73866062  0.54478440    -0.82490
Co630      Co  0.99910099  0.65915070  0.45432142     1.51530
Co631      Co  0.33950317  0.97634687  0.55988843     1.51690
Co632      Co  0.02428491  0.71977614  0.50531847     1.51570
Co633      Co  0.28566727  0.97485093  0.49323646     1.51470
O634        O  0.99693526  0.00273609  0.50872847    -1.44380
C635        C  0.24939181  0.99500500  0.44269123     1.07170
C636        C  0.99447451  0.72635540  0.57880893     1.07260
C637        C  0.99873883  0.73878410  0.43416001     1.07200
C638        C  0.25714857  0.99493598  0.56599696     1.07170
O639        O  0.01375668  0.76060081  0.37231834    -0.82450
O640        O  0.29003522  0.91299705  0.64577692    -0.82470
O641        O  0.99254566  0.87925588  0.40436273    -0.82480
O642        O  0.24539842  0.79989314  0.63441688    -0.82420
O643        O  0.34453940  0.92108720  0.35720603    -0.82540
O644        O  0.28469535  0.77434442  0.34273262    -0.82460
O645        O  0.25832008  0.86482032  0.67419142    -0.82450
O646        O  0.99268384  0.80328162  0.41095249    -0.82480
C647        C  0.00007816  0.76907477  0.40455582     1.07240
C648        C  0.26131281  0.90055671  0.66484160     1.07190
C649        C  0.99757878  0.91310165  0.39162445     1.07270
C650        C  0.25522800  0.77215511  0.65830627     1.07140
O651        O  0.00769915  0.74082943  0.63894171    -0.82450
O652        O  0.06265844  0.87750066  0.63899531    -0.82520
O653        O  0.06674078  0.79967771  0.37110013    -0.82460
O654        O  0.28215981  0.86491627  0.59474076    -0.82440
O655        O  0.34060472  0.87121244  0.59215651    -0.82490
O656        O  0.05722853  0.79510954  0.31022163    -0.82460
O657        O  0.31415832  0.78862936  0.60365572    -0.82420
O658        O  0.06652687  0.87736195  0.36765107    -0.82490
Co659      Co  0.00443211  0.78903247  0.32370883     1.51530
Co660      Co  0.34308362  0.89318667  0.64201480     1.51690
Co661      Co  0.02731723  0.83987209  0.38571539     1.51570
Co662      Co  0.28795614  0.82726014  0.64290201     1.51470
O663        O  0.33290139  0.84258485  0.66906529    -1.44380
C664        C  0.32684731  0.75306277  0.60837637     1.07170
C665        C  0.07966330  0.88611245  0.33350218     1.07260
C666        C  0.07645225  0.78650506  0.33874649     1.07200
C667        C  0.31064031  0.87864416  0.57673962     1.07170
O668        O  0.24620577  0.67833627  0.37624923    -0.82450
O669        O  0.08544259  0.95067831  0.65680719    -0.82470
O670        O  0.12066727  0.69874334  0.40834151    -0.82480
O671        O  0.20967908  0.92965330  0.63824426    -0.82420
O672        O  0.09642816  0.98075947  0.39137354    -0.82540
O673        O  0.22414828  0.95221372  0.35806638    -0.82460
O674        O  0.13731564  0.91628085  0.65361824    -0.82450
O675        O  0.19311070  0.67831924  0.40876407    -0.82480
C676        C  0.22825506  0.67305848  0.40884908     1.07240
C677        C  0.10278463  0.91885734  0.65979604     1.07130
C678        C  0.09988005  0.67091171  0.41633338     1.07270
C679        C  0.22885818  0.92757518  0.66675187     1.07140
O680        O  0.23340771  0.66848515  0.62875554    -0.82450
O681        O  0.08277098  0.72053630  0.68544314    -0.82520
O682        O  0.19978753  0.73838274  0.33073983    -0.82460
O683        O  0.12115247  0.97220789  0.59065586    -0.82440
O684        O  0.09390855  0.02281846  0.61560318    -0.82490
O685        O  0.24841873  0.70542952  0.34708178    -0.82460
O686        O  0.19329108  0.99408369  0.58651078    -0.82420
O687        O  0.13253066  0.74837163  0.33402436    -0.82490
Co688      Co  0.20429047  0.67324761  0.34540893     1.51530
Co689      Co  0.09653245  0.00158620  0.67022603     1.51690
Co690      Co  0.16149921  0.71045819  0.36696349     1.51570
Co691      Co  0.16433014  0.95747691  0.62164723     1.51470
O692        O  0.15398859  0.66364132  0.66456913    -1.44380
C693        C  0.22576154  0.99953486  0.59436544     1.07170
C694        C  0.09851556  0.75038748  0.34016114     1.07260
C695        C  0.23393420  0.73765901  0.33425530     1.07200
C696        C  0.09902027  0.00114849  0.58827134     1.07170
O697        O  0.05172709  0.64386701  0.79047770    -0.82450
O698        O  0.33958943  0.92693051  0.87047317    -0.82470
O699        O  0.06201949  0.70505429  0.87771077    -0.82480
O700        O  0.31289254  0.93740309  0.78715340    -0.82420
O701        O  0.05967231  0.97619897  0.88063075    -0.82540
O702        O  0.00012176  0.97605650  0.73807078    -0.82460
O703        O  0.28132317  0.92621719  0.86428669    -0.82450
O704        O  0.06458635  0.70346631  0.79814985    -0.82480
C705        C  0.07284973  0.67143344  0.78347202     1.07240
C706        C  0.31021727  0.90998646  0.87813809     1.07130
C707        C  0.07441172  0.67212573  0.88981122     1.07270
C708        C  0.32453797  0.94338019  0.75103498     1.07140
O709        O  0.27899181  0.67949441  0.77806383    -0.82450
O710        O  0.33865040  0.69151981  0.92082284    -0.82520
O711        O  0.99022118  0.74424164  0.80184790    -0.82460
O712        O  0.25474378  0.00469619  0.86376513    -0.82440
O713        O  0.28595422  0.97717821  0.91183517    -0.82490
O714        O  0.01126216  0.70667074  0.75867631    -0.82460
O715        O  0.24231670  0.96653605  0.80027225    -0.82420
O716        O  0.98919269  0.73868360  0.87810642    -0.82490
Co717      Co  0.99904502  0.65916928  0.78763333     1.51530
Co718      Co  0.33944140  0.97636426  0.89326998     1.51690
Co719      Co  0.02432297  0.71976371  0.83861960     1.51570
Co720      Co  0.28565155  0.97484633  0.82658687     1.51470
O721        O  0.99691536  0.00270695  0.84208595    -1.44380
C722        C  0.24944007  0.99494028  0.77599281     1.07170
C723        C  0.99454537  0.72636953  0.91213191     1.07260
C724        C  0.99872526  0.73878289  0.76747310     1.07200
C725        C  0.25709421  0.99492654  0.89934221     1.07170
O726        O  0.01368185  0.76057359  0.70561392    -0.82450
O727        O  0.29004713  0.91300605  0.97909402    -0.82470
O728        O  0.99253122  0.87922546  0.73766418    -0.82480
O729        O  0.24544472  0.79988190  0.96774152    -0.82420
O730        O  0.34453072  0.92105858  0.69055928    -0.82540
O731        O  0.28461339  0.77436523  0.67605145    -0.82460
O732        O  0.25833371  0.86482556  0.00750200    -0.82450
O733        O  0.99261941  0.80326446  0.74423658    -0.82480
C734        C  0.00002077  0.76905714  0.73785403     1.07240
C735        C  0.26132074  0.90056461  0.99815119     1.07190
C736        C  0.99760960  0.91306689  0.72494683     1.07270
C737        C  0.25527219  0.77214721  0.99163469     1.07140
O738        O  0.00776882  0.74083966  0.97227492    -0.82450
O739        O  0.06263852  0.87752232  0.97237566    -0.82520
O740        O  0.06668481  0.79961540  0.70439752    -0.82460
O741        O  0.28219002  0.86489801  0.92806810    -0.82440
O742        O  0.34063116  0.87121389  0.92548845    -0.82490
O743        O  0.05717421  0.79504481  0.64351689    -0.82460
O744        O  0.31421385  0.78862228  0.93699168    -0.82420
O745        O  0.06652384  0.87729071  0.70097110    -0.82490
Co746      Co  0.00437242  0.78901470  0.65700956     1.51530
Co747      Co  0.34309995  0.89319438  0.97534548     1.51690
Co748      Co  0.02728355  0.83982752  0.71901520     1.51570
Co749      Co  0.28799137  0.82725489  0.97623174     1.51470
O750        O  0.33292532  0.84259100  0.00240142    -1.44380
C751        C  0.32692390  0.75306155  0.94170642     1.07170
C752        C  0.07966791  0.88605931  0.66682842     1.07260
C753        C  0.07639491  0.78644152  0.67204447     1.07200
C754        C  0.31066572  0.87863582  0.91007052     1.07170
O755        O  0.24618130  0.67834065  0.70957026    -0.82450
O756        O  0.08541357  0.95070066  0.99019888    -0.82470
O757        O  0.12063999  0.69868804  0.74163035    -0.82480
O758        O  0.20965497  0.92966285  0.97158892    -0.82420
O759        O  0.09641077  0.98077860  0.72474999    -0.82540
O760        O  0.22414328  0.95219930  0.69141357    -0.82460
O761        O  0.13728657  0.91630262  0.98699805    -0.82450
O762        O  0.19307903  0.67833872  0.74206949    -0.82480
C763        C  0.22822287  0.67308044  0.74216813     1.07240
C764        C  0.10275632  0.91888051  0.99318242     1.07130
C765        C  0.09986245  0.67084704  0.74962455     1.07270
C766        C  0.22886254  0.92759126  0.00007571     1.07140
O767        O  0.23341495  0.66850214  0.96209216    -0.82450
O768        O  0.08278056  0.72057205  0.01874551    -0.82520
O769        O  0.19973913  0.73836000  0.66401444    -0.82460
O770        O  0.12110442  0.97223505  0.92404903    -0.82440
O771        O  0.09385855  0.02284235  0.94900328    -0.82490
O772        O  0.24837693  0.70543443  0.68038576    -0.82460
O773        O  0.19323981  0.99410333  0.91987126    -0.82420
O774        O  0.13247340  0.74831407  0.66728495    -0.82490
Co775      Co  0.20427247  0.67321871  0.67872753     1.51530
Co776      Co  0.09650759  0.00160255  0.00362096     1.51690
Co777      Co  0.16146069  0.71043725  0.70024792     1.51570
Co778      Co  0.16429365  0.95749590  0.95501849     1.51470
O779        O  0.15399317  0.66366855  0.99790968    -1.44380
C780        C  0.22571299  0.99955645  0.92771276     1.07170
C781        C  0.09846278  0.75033017  0.67346192     1.07260
C782        C  0.23388221  0.73765410  0.66754529     1.07200
C783        C  0.09896893  0.00117323  0.92167005     1.07170
O784        O  0.38510392  0.97720474  0.12391643    -0.82450
O785        O  0.67296622  0.26026620  0.20381757    -0.82470
O786        O  0.39527714  0.03839983  0.21109184    -0.82480
O787        O  0.64628149  0.27073647  0.12048432    -0.82420
O788        O  0.39302445  0.30955258  0.21397637    -0.82540
O789        O  0.33357184  0.30936580  0.07145064    -0.82460
O790        O  0.61470164  0.25955970  0.19761121    -0.82450
O791        O  0.39789215  0.03683211  0.13153983    -0.82480
C792        C  0.40619725  0.00479148  0.11689012     1.07240
C793        C  0.64358969  0.24332380  0.21146749     1.07130
C794        C  0.40769845  0.00547443  0.22316789     1.07270
C795        C  0.65795108  0.27670670  0.08437285     1.07140
O796        O  0.61238087  0.01275306  0.11134538    -0.82450
O797        O  0.67192323  0.02483230  0.25417305    -0.82520
O798        O  0.32348614  0.07754374  0.13520759    -0.82460
O799        O  0.58813017  0.33803465  0.19707825    -0.82440
O800        O  0.61933388  0.31052298  0.24515925    -0.82490
O801        O  0.34460396  0.03998815  0.09205118    -0.82460
O802        O  0.57571400  0.29985419  0.13360369    -0.82420
O803        O  0.32241874  0.07197126  0.21146230    -0.82490
Co804      Co  0.33242358  0.99246030  0.12099862     1.51530
Co805      Co  0.67282050  0.30970729  0.22660615     1.51690
Co806      Co  0.35758763  0.05309200  0.17199176     1.51570
Co807      Co  0.61904039  0.30818329  0.15991226     1.51470
O808        O  0.33026473  0.33605784  0.17544598    -1.44380
C809        C  0.58285079  0.32824218  0.10930978     1.07170
C810        C  0.32779142  0.05966952  0.24548502     1.07260
C811        C  0.33201967  0.07209082  0.10083756     1.07200
C812        C  0.59047611  0.32826677  0.23265544     1.07170
O813        O  0.34696197  0.09388782  0.03897736    -0.82450
O814        O  0.62341277  0.24633444  0.31239632    -0.82470
O815        O  0.32579228  0.21256303  0.07101329    -0.82480
O816        O  0.57876104  0.13322952  0.30107050    -0.82420
O817        O  0.67787073  0.25438634  0.02388242    -0.82540
O818        O  0.61792159  0.10771334  0.00939526    -0.82460
O819        O  0.59169029  0.19816930  0.34082212    -0.82450
O820        O  0.32588246  0.13657780  0.07759460    -0.82480
C821        C  0.33329656  0.10236866  0.07121601     1.07240
C822        C  0.59468655  0.23390407  0.33146166     1.07190
C823        C  0.33090983  0.24640071  0.05830394     1.07270
C824        C  0.58858293  0.10549242  0.32496454     1.07140
O825        O  0.34103926  0.07415364  0.30560951    -0.82450
O826        O  0.39598960  0.21085204  0.30566144    -0.82520
O827        O  0.39995917  0.13294276  0.03778615    -0.82460
O828        O  0.61553986  0.19823270  0.26138005    -0.82440
O829        O  0.67398526  0.20451599  0.25880112    -0.82490
O830        O  0.39047098  0.12835109  0.97690067    -0.82460
O831        O  0.64751713  0.12194342  0.27031316    -0.82420
O832        O  0.39980160  0.21062775  0.03436534    -0.82490
Co833      Co  0.33766409  0.12233308  0.99037345     1.51530
Co834      Co  0.67646192  0.22651593  0.30864409     1.51690
Co835      Co  0.36055218  0.17315520  0.05238704     1.51570
Co836      Co  0.62132477  0.16058992  0.30954976     1.51470
O837        O  0.66627643  0.17591693  0.33570660    -1.44380
C838        C  0.66019935  0.08637520  0.27504051     1.07170
C839        C  0.41295866  0.21941836  0.00023025     1.07260
C840        C  0.40968337  0.11976257  0.00543842     1.07200
C841        C  0.64402347  0.21195755  0.24338391     1.07170
O842        O  0.57951509  0.01168321  0.04289451    -0.82450
O843        O  0.41878378  0.28404917  0.32343399    -0.82470
O844        O  0.45398294  0.03204190  0.07503306    -0.82480
O845        O  0.54302439  0.26299508  0.30489656    -0.82420
O846        O  0.42975771  0.31417280  0.05814482    -0.82540
O847        O  0.55755612  0.28559113  0.02470550    -0.82460
O848        O  0.47065000  0.24964098  0.32030171    -0.82450
O849        O  0.52642606  0.01165218  0.07541875    -0.82480
C850        C  0.56157143  0.00639934  0.07549800     1.07240
C851        C  0.43611610  0.25222260  0.32645515     1.07130
C852        C  0.43320892  0.00420146  0.08304030     1.07270
C853        C  0.56223545  0.26093435  0.33337958     1.07140
O854        O  0.56674398  0.00181995  0.29541602    -0.82450
O855        O  0.41610195  0.05386014  0.35209340    -0.82520
O856        O  0.53305033  0.07170246  0.99737314    -0.82460
O857        O  0.45448286  0.30557694  0.25733888    -0.82440
O858        O  0.42729229  0.35621528  0.28227745    -0.82490
O859        O  0.58169764  0.03877905  0.01371744    -0.82460
O860        O  0.52662445  0.32742349  0.25316715    -0.82420
O861        O  0.46577961  0.08165892  0.00069582    -0.82490
Co862      Co  0.53759254  0.00656436  0.01206968     1.51530
Co863      Co  0.42989783  0.33494890  0.33688190     1.51690
Co864      Co  0.49478798  0.04377143  0.03362707     1.51570
Co865      Co  0.49767024  0.29082603  0.28831422     1.51470
O866        O  0.48732618  0.99697626  0.33121595    -1.44380
C867        C  0.55909220  0.33289318  0.26101463     1.07170
C868        C  0.43176725  0.08366045  0.00686849     1.07260
C869        C  0.56719700  0.07099838  0.00088429     1.07200
C870        C  0.43236666  0.33453183  0.25495740     1.07170
O871        O  0.38503614  0.97716613  0.45707650    -0.82450
O872        O  0.67299305  0.26026583  0.53711894    -0.82470
O873        O  0.39538248  0.03832492  0.54434683    -0.82480
O874        O  0.64630735  0.27074551  0.45378948    -0.82420
O875        O  0.39308809  0.30950723  0.54724528    -0.82540
O876        O  0.33338574  0.30941725  0.40471074    -0.82460
O877        O  0.61472679  0.25957177  0.53092272    -0.82450
O878        O  0.39792596  0.03674979  0.46478501    -0.82480
C879        C  0.40617338  0.00472358  0.45009130     1.07240
C880        C  0.64361314  0.24333129  0.54477754     1.07130
C881        C  0.40775982  0.00539365  0.55645671     1.07270
C882        C  0.65790640  0.27673065  0.41765910     1.07140
O883        O  0.61231870  0.01285192  0.44473029    -0.82450
O884        O  0.67201945  0.02481885  0.58746437    -0.82520
O885        O  0.32357666  0.07755324  0.46850770    -0.82460
O886        O  0.58816595  0.33803615  0.53039621    -0.82440
O887        O  0.61939866  0.31056116  0.57847453    -0.82490
O888        O  0.34458367  0.03998938  0.42531900    -0.82460
O889        O  0.57572877  0.29987664  0.46691280    -0.82420
O890        O  0.32256479  0.07197662  0.54475444    -0.82490
Co891      Co  0.33235252  0.99249125  0.45427118     1.51530
Co892      Co  0.67288699  0.30971092  0.55989724     1.51690
Co893      Co  0.35768128  0.05305247  0.50526384     1.51570
Co894      Co  0.61907125  0.30819050  0.49321970     1.51470
O895        O  0.33030675  0.33605217  0.50873862    -1.44380
C896        C  0.58282339  0.32829989  0.44264906     1.07170
C897        C  0.32791460  0.05966217  0.57877935     1.07260
C898        C  0.33206707  0.07210363  0.43412918     1.07200
C899        C  0.59051882  0.32826556  0.56597248     1.07170
O900        O  0.34702548  0.09390617  0.37227727    -0.82450
O901        O  0.62340203  0.24631142  0.64570844    -0.82470
O902        O  0.32587379  0.21256465  0.40433425    -0.82480
O903        O  0.57877908  0.13318176  0.63433117    -0.82420
O904        O  0.67790557  0.25440270  0.35718251    -0.82540
O905        O  0.61797269  0.10769648  0.34270707    -0.82460
O906        O  0.59166980  0.19813299  0.67409348    -0.82450
O907        O  0.32597363  0.13659367  0.41090986    -0.82480
C908        C  0.33336912  0.10238659  0.40451945     1.07240
C909        C  0.59467871  0.23387297  0.66476896     1.07190
C910        C  0.33093353  0.24640863  0.39160698     1.07270
C911        C  0.58858364  0.10546356  0.65825580     1.07140
O912        O  0.34110431  0.07413853  0.63893181    -0.82450
O913        O  0.39597533  0.21086881  0.63903802    -0.82520
O914        O  0.40002910  0.13295408  0.37105486    -0.82460
O915        O  0.61555929  0.19821257  0.59466470    -0.82440
O916        O  0.67400037  0.20452298  0.59212401    -0.82490
O917        O  0.39050522  0.12837974  0.31017813    -0.82460
O918        O  0.64756874  0.12192204  0.60361803    -0.82420
O919        O  0.39985626  0.21064581  0.36763521    -0.82490
Co920      Co  0.33770617  0.12234203  0.32367596     1.51530
Co921      Co  0.67644592  0.22650468  0.64198334     1.51690
Co922      Co  0.36062647  0.17316664  0.38567986     1.51570
Co923      Co  0.62132900  0.16056188  0.64283331     1.51470
O924        O  0.66624866  0.17589840  0.66903413    -1.44380
C925        C  0.66025852  0.08635641  0.60835294     1.07170
C926        C  0.41299483  0.21942297  0.33349245     1.07260
C927        C  0.40972941  0.11977309  0.33870226     1.07200
C928        C  0.64404460  0.21195854  0.57669118     1.07170
O929        O  0.57951261  0.01168516  0.37622766    -0.82450
O930        O  0.41876737  0.28408200  0.65679204    -0.82470
O931        O  0.45396762  0.03199217  0.40826989    -0.82480
O932        O  0.54299553  0.26293946  0.63826268    -0.82420
O933        O  0.42977522  0.31409860  0.39138235    -0.82540
O934        O  0.55754533  0.28557114  0.35803142    -0.82460
O935        O  0.47062110  0.24965101  0.65373314    -0.82450
O936        O  0.52641109  0.01168336  0.40872698    -0.82480
C937        C  0.56155497  0.00642935  0.40882617     1.07240
C938        C  0.43608480  0.25224725  0.65985809     1.07130
C939        C  0.43319519  0.00414434  0.41625398     1.07270
C940        C  0.56224000  0.26090892  0.66671094     1.07140
O941        O  0.56674306  0.00180461  0.62874080    -0.82450
O942        O  0.41609329  0.05386888  0.68540966    -0.82520
O943        O  0.53307875  0.07171255  0.33068335    -0.82460
O944        O  0.45449615  0.30550425  0.59068858    -0.82440
O945        O  0.42735750  0.35620958  0.61554257    -0.82490
O946        O  0.58171377  0.03877273  0.34704214    -0.82460
O947        O  0.52666121  0.32731848  0.58649073    -0.82420
O948        O  0.46580286  0.08163815  0.33393089    -0.82490
Co949      Co  0.53760440  0.00656334  0.34538152     1.51530
Co950      Co  0.42991176  0.33500018  0.67018317     1.51690
Co951      Co  0.49479245  0.04376978  0.36689940     1.51570
Co952      Co  0.49766686  0.29078574  0.62169185     1.51470
O953        O  0.48731571  0.99696098  0.66457797    -1.44380
C954        C  0.55912112  0.33284673  0.59433398     1.07170
C955        C  0.43179325  0.08365654  0.34011555     1.07260
C956        C  0.56722500  0.07099734  0.33420663     1.07200
C957        C  0.43241888  0.33448528  0.58825140     1.07170
O958        O  0.38511601  0.97719747  0.79059203    -0.82450
O959        O  0.67297090  0.26026345  0.87049289    -0.82470
O960        O  0.39527650  0.03839046  0.87779280    -0.82480
O961        O  0.64628950  0.27073218  0.78714149    -0.82420
O962        O  0.39303385  0.30954324  0.88064920    -0.82540
O963        O  0.33354156  0.30937539  0.73809952    -0.82460
O964        O  0.61470899  0.25955938  0.86427706    -0.82450
O965        O  0.39791340  0.03682017  0.79821181    -0.82480
C966        C  0.40620532  0.00478446  0.78354548     1.07240
C967        C  0.64359308  0.24332394  0.87814143     1.07130
C968        C  0.40767352  0.00546256  0.88989025     1.07270
C969        C  0.65795251  0.27670121  0.75102672     1.07140
O970        O  0.61242083  0.01270329  0.77797088    -0.82450
O971        O  0.67188782  0.02482259  0.92085933    -0.82520
O972        O  0.32352163  0.07755105  0.80186776    -0.82460
O973        O  0.58813052  0.33802627  0.86374894    -0.82440
O974        O  0.61933913  0.31053221  0.91183352    -0.82490
O975        O  0.34462103  0.03998278  0.75871381    -0.82460
O976        O  0.57572745  0.29984856  0.80026600    -0.82420
O977        O  0.32243417  0.07197974  0.87813204    -0.82490
Co978      Co  0.33243704  0.99245552  0.78766617     1.51530
Co979      Co  0.67283127  0.30970626  0.89327748     1.51690
Co980      Co  0.35760622  0.05308730  0.83866728     1.51570
Co981      Co  0.61905163  0.30818109  0.82657644     1.51470
O982        O  0.33028297  0.33606799  0.84210430    -1.44380
C983        C  0.58286751  0.32822969  0.77596482     1.07170
C984        C  0.32777855  0.05967127  0.91216070     1.07260
C985        C  0.33204858  0.07209058  0.76749691     1.07200
C986        C  0.59047206  0.32825771  0.89932804     1.07170
O987        O  0.34700808  0.09388675  0.70563271    -0.82450
O988        O  0.62339379  0.24633238  0.97907549    -0.82470
O989        O  0.32578160  0.21256481  0.73766340    -0.82480
O990        O  0.57872869  0.13322875  0.96773246    -0.82420
O991        O  0.67785939  0.25438392  0.69052809    -0.82540
O992        O  0.61795774  0.10768183  0.67601630    -0.82460
O993        O  0.59165986  0.19816915  0.00748780    -0.82450
O994        O  0.32590312  0.13657487  0.74424396    -0.82480
C995        C  0.33332941  0.10236659  0.73786888     1.07240
C996        C  0.59466689  0.23390430  0.99814045     1.07190
C997        C  0.33088963  0.24640511  0.72495470     1.07270
C998        C  0.58854409  0.10549873  0.99163875     1.07140
O999        O  0.34098241  0.07414386  0.97230548    -0.82450
O1000       O  0.39597370  0.21085068  0.97238142    -0.82520
O1001       O  0.39999182  0.13295869  0.70445611    -0.82460
O1002       O  0.61553039  0.19823466  0.92804864    -0.82440
O1003       O  0.67397706  0.20451964  0.92548971    -0.82490
O1004       O  0.39052736  0.12839601  0.64356449    -0.82460
O1005       O  0.64749337  0.12193810  0.93699414    -0.82420
O1006       O  0.39979746  0.21065918  0.70102159    -0.82490
Co1007     Co  0.33772695  0.12232492  0.65701278     1.51530
Co1008     Co  0.67643917  0.22650881  0.97534176     1.51690
Co1009     Co  0.36056220  0.17316567  0.71904209     1.51570
Co1010     Co  0.62129402  0.16058865  0.97622035     1.51470
O1011       O  0.66623741  0.17590732  0.00239539    -1.44380
C1012       C  0.66016262  0.08636612  0.94172805     1.07170
C1013       C  0.41295380  0.21944805  0.66688542     1.07260
C1014       C  0.40972871  0.11978894  0.67210502     1.07200
C1015       C  0.64401920  0.21196066  0.91006265     1.07170
O1016       O  0.57953149  0.01167325  0.70954164    -0.82450
O1017       O  0.41874991  0.28405557  0.99022971    -0.82470
O1018       O  0.45399246  0.03201976  0.74167281    -0.82480
O1019       O  0.54298731  0.26297684  0.97161100    -0.82420
O1020       O  0.42971756  0.31420553  0.72471723    -0.82540
O1021       O  0.55759219  0.28557506  0.69133460    -0.82460
O1022       O  0.47061446  0.24964366  0.98705692    -0.82450
O1023       O  0.52644490  0.01159486  0.74206547    -0.82480
C1024       C  0.56159249  0.00636791  0.74214465     1.07240
C1025       C  0.43608102  0.25222504  0.99321926     1.07130
C1026       C  0.43318500  0.00420526  0.74966071     1.07270
C1027       C  0.56222302  0.26093833  0.00006987     1.07140
O1028       O  0.56671545  0.00182297  0.96208866    -0.82450
O1029       O  0.41608252  0.05386124  0.01884724    -0.82520
O1030       O  0.53307558  0.07168354  0.66403304    -0.82460
O1031       O  0.45445260  0.30554522  0.92407539    -0.82440
O1032       O  0.42726282  0.35619521  0.94899375    -0.82490
O1033       O  0.58172252  0.03875549  0.68036646    -0.82460
O1034       O  0.52661162  0.32737408  0.91985769    -0.82420
O1035       O  0.46582066  0.08167187  0.66738815    -0.82490
Co1036     Co  0.53760947  0.00655630  0.67870979     1.51530
Co1037     Co  0.42988272  0.33497312  0.00361923     1.51690
Co1038     Co  0.49481147  0.04374169  0.70028605     1.51570
Co1039     Co  0.49764004  0.29081221  0.95504632     1.51470
O1040       O  0.48729923  0.99697781  0.99794188    -1.44380
C1041       C  0.55907942  0.33287247  0.92769287     1.07170
C1042       C  0.43180365  0.08367672  0.67351622     1.07260
C1043       C  0.56722590  0.07097368  0.66752545     1.07200
C1044       C  0.43234653  0.33450527  0.92167713     1.07170
O1045       O  0.38520240  0.31055379  0.12399457    -0.82450
O1046       O  0.67293943  0.59362014  0.20381238    -0.82470
O1047       O  0.39530676  0.37173429  0.21113075    -0.82480
O1048       O  0.64623603  0.60409933  0.12049654    -0.82420
O1049       O  0.39302413  0.64288620  0.21395871    -0.82540
O1050       O  0.33335236  0.64277226  0.07141575    -0.82460
O1051       O  0.61467062  0.59292200  0.19763617    -0.82450
O1052       O  0.39794795  0.37019743  0.13157457    -0.82480
C1053       C  0.40626917  0.33815581  0.11693371     1.07240
C1054       C  0.64356288  0.57668395  0.21148355     1.07130
C1055       C  0.40772403  0.33880541  0.22319935     1.07270
C1056       C  0.65784565  0.61008227  0.08436884     1.07140
O1057       O  0.61248392  0.34602801  0.11128510    -0.82450
O1058       O  0.67193584  0.35817410  0.25419860    -0.82520
O1059       O  0.32353673  0.41088104  0.13523276    -0.82460
O1060       O  0.58811231  0.67140395  0.19710504    -0.82440
O1061       O  0.61933230  0.64389645  0.24517410    -0.82490
O1062       O  0.34467594  0.37332977  0.09207515    -0.82460
O1063       O  0.57566045  0.63323372  0.13362828    -0.82420
O1064       O  0.32244819  0.40531033  0.21149055    -0.82490
Co1065     Co  0.33252611  0.32577707  0.12101612     1.51530
Co1066     Co  0.67281758  0.64305965  0.22659739     1.51690
Co1067     Co  0.35762829  0.38643525  0.17202413     1.51570
Co1068     Co  0.61900633  0.64154472  0.15992940     1.51470
O1069       O  0.33025630  0.66941403  0.17543302    -1.44380
C1070       C  0.58276605  0.66164863  0.10935704     1.07170
C1071       C  0.32781556  0.39301021  0.24551478     1.07260
C1072       C  0.33208903  0.40543415  0.10086465     1.07200
C1073       C  0.59046767  0.66163665  0.23268103     1.07170
O1074       O  0.34705186  0.42725533  0.03901199    -0.82450
O1075       O  0.62340072  0.57969308  0.31243023    -0.82470
O1076       O  0.32583099  0.54592408  0.07104480    -0.82480
O1077       O  0.57876445  0.46658667  0.30110047    -0.82420
O1078       O  0.67786712  0.58775744  0.02390248    -0.82540
O1079       O  0.61799271  0.44104927  0.00942406    -0.82460
O1080       O  0.59168848  0.53152203  0.34085593    -0.82450
O1081       O  0.32597666  0.46993413  0.07764546    -0.82480
C1082       C  0.33338587  0.43572606  0.07125374     1.07240
C1083       C  0.59467551  0.56725770  0.33149360     1.07190
C1084       C  0.33089143  0.57976828  0.05831834     1.07270
C1085       C  0.58859388  0.43884782  0.32498850     1.07140
O1086       O  0.34106144  0.40750388  0.30564111    -0.82450
O1087       O  0.39598836  0.54421616  0.30569836    -0.82520
O1088       O  0.40003908  0.46634115  0.03780812    -0.82460
O1089       O  0.61553231  0.53159023  0.26141167    -0.82440
O1090       O  0.67397579  0.53789605  0.25882343    -0.82490
O1091       O  0.39053384  0.46174173  0.97693003    -0.82460
O1092       O  0.64752053  0.45529159  0.27034228    -0.82420
O1093       O  0.39982879  0.54403174  0.03435991    -0.82490
Co1094     Co  0.33772985  0.45569644  0.99040797     1.51530
Co1095     Co  0.67645210  0.55987646  0.30867801     1.51690
Co1096     Co  0.36061149  0.50653691  0.05241216     1.51570
Co1097     Co  0.62132652  0.49394457  0.30957952     1.51470
O1098       O  0.66627923  0.50926856  0.33573376    -1.44380
C1099       C  0.66020604  0.41972253  0.27506907     1.07170
C1100       C  0.41297446  0.55279089  0.00021459     1.07260
C1101       C  0.40975621  0.45315559  0.00546096     1.07200
C1102       C  0.64400890  0.54532601  0.24341107     1.07170
O1103       O  0.57956901  0.34502187  0.04288052    -0.82450
O1104       O  0.41877502  0.61740483  0.32351111    -0.82470
O1105       O  0.45404031  0.36539838  0.07505566    -0.82480
O1106       O  0.54302177  0.59635974  0.30491309    -0.82420
O1107       O  0.42971898  0.64749025  0.05805432    -0.82540
O1108       O  0.55749864  0.61890381  0.02474339    -0.82460
O1109       O  0.47064533  0.58300014  0.32032443    -0.82450
O1110       O  0.52648950  0.34494387  0.07542266    -0.82480
C1111       C  0.56163718  0.33971005  0.07548763     1.07240
C1112       C  0.43611336  0.58558030  0.32650179     1.07130
C1113       C  0.43324434  0.33757799  0.08305236     1.07270
C1114       C  0.56221703  0.59428179  0.33340917     1.07140
O1115       O  0.56675624  0.33517602  0.29539434    -0.82450
O1116       O  0.41612767  0.38720558  0.35210956    -0.82520
O1117       O  0.53310889  0.40505692  0.99742038    -0.82460
O1118       O  0.45447363  0.63891916  0.25736256    -0.82440
O1119       O  0.42725052  0.68954673  0.28229362    -0.82490
O1120       O  0.58175936  0.37211856  0.01372327    -0.82460
O1121       O  0.52661285  0.66079683  0.25319992    -0.82420
O1122       O  0.46585641  0.41504646  0.00077181    -0.82490
Co1123     Co  0.53763952  0.33992798  0.01205433     1.51530
Co1124     Co  0.42987435  0.66831885  0.33691642     1.51690
Co1125     Co  0.49484960  0.37710713  0.03366231     1.51570
Co1126     Co  0.49766037  0.62419079  0.28834303     1.51470
O1127       O  0.48735368  0.33031190  0.33123220    -1.44380
C1128       C  0.55908386  0.66625452  0.26104816     1.07170
C1129       C  0.43183745  0.41704644  0.00688792     1.07260
C1130       C  0.56725759  0.40434637  0.00091691     1.07200
C1131       C  0.43234633  0.66786338  0.25497230     1.07170
O1132       O  0.38513308  0.31051370  0.45716603    -0.82450
O1133       O  0.67295708  0.59360516  0.53714313    -0.82470
O1134       O  0.39541900  0.37168339  0.54436232    -0.82480
O1135       O  0.64625820  0.60407935  0.45381997    -0.82420
O1136       O  0.39301268  0.64291926  0.54728733    -0.82540
O1137       O  0.33340292  0.64275290  0.40475523    -0.82460
O1138       O  0.61469022  0.59289125  0.53095980    -0.82450
O1139       O  0.39796883  0.37012247  0.46481053    -0.82480
C1140       C  0.40624261  0.33808660  0.45014515     1.07240
C1141       C  0.64358456  0.57666039  0.54481022     1.07130
C1142       C  0.40780595  0.33875303  0.55646082     1.07270
C1143       C  0.65787810  0.61006510  0.41769523     1.07140
O1144       O  0.61242407  0.34612512  0.44466601    -0.82450
O1145       O  0.67206002  0.35818178  0.58749067    -0.82520
O1146       O  0.32359856  0.41088474  0.46853673    -0.82460
O1147       O  0.58811310  0.67137383  0.53042504    -0.82440
O1148       O  0.61932512  0.64386284  0.57849651    -0.82490
O1149       O  0.34464728  0.37332945  0.42535039    -0.82460
O1150       O  0.57567551  0.63319600  0.46695310    -0.82420
O1151       O  0.32259606  0.40532453  0.54479160    -0.82490
Co1152     Co  0.33245548  0.32580385  0.45429097     1.51530
Co1153     Co  0.67281008  0.64304993  0.55992292     1.51690
Co1154     Co  0.35771252  0.38640558  0.50528981     1.51570
Co1155     Co  0.61901523  0.64151677  0.49325359     1.51470
O1156       O  0.33024758  0.66940679  0.50876397    -1.44380
C1157       C  0.58277934  0.66161654  0.44268802     1.07170
C1158       C  0.32796173  0.39301352  0.57881482     1.07260
C1159       C  0.33210044  0.40543759  0.43415960     1.07200
C1160       C  0.59046561  0.66161119  0.56600197     1.07170
O1161       O  0.34704371  0.42725278  0.37230834    -0.82450
O1162       O  0.62339075  0.57968303  0.64574790    -0.82470
O1163       O  0.32586484  0.54590867  0.40436844    -0.82480
O1164       O  0.57882783  0.46654436  0.63442775    -0.82420
O1165       O  0.67789192  0.58774876  0.35722263    -0.82540
O1166       O  0.61798043  0.44105549  0.34273519    -0.82460
O1167       O  0.59169028  0.53150283  0.67417102    -0.82450
O1168       O  0.32598238  0.46993141  0.41094621    -0.82480
C1169       C  0.33338683  0.43572556  0.40455210     1.07240
C1170       C  0.59466569  0.56724138  0.66480605     1.07190
C1171       C  0.33092553  0.57975375  0.39164593     1.07270
C1172       C  0.58865979  0.43881253  0.65832177     1.07140
O1173       O  0.34122296  0.40751110  0.63894783    -0.82450
O1174       O  0.39598884  0.54421895  0.63903601    -0.82520
O1175       O  0.40004346  0.46630841  0.37110023    -0.82460
O1176       O  0.61555953  0.53156143  0.59473793    -0.82440
O1177       O  0.67399648  0.53788750  0.59216246    -0.82490
O1178       O  0.39052833  0.46172917  0.31022221    -0.82460
O1179       O  0.64760212  0.45528713  0.60368058    -0.82420
O1180       O  0.39985279  0.54400147  0.36767486    -0.82490
Co1181     Co  0.33772520  0.45569337  0.32370936     1.51530
Co1182     Co  0.67644699  0.55987910  0.64201500     1.51690
Co1183     Co  0.36062871  0.50651624  0.38571813     1.51570
Co1184     Co  0.62136492  0.49392749  0.64291272     1.51470
O1185       O  0.66629184  0.50927431  0.66908602    -1.44380
C1186       C  0.66032606  0.41972933  0.60839238     1.07170
C1187       C  0.41299342  0.55278048  0.33353280     1.07260
C1188       C  0.40975054  0.45312514  0.33874949     1.07200
C1189       C  0.64403346  0.54530487  0.57674080     1.07170
O1190       O  0.57956327  0.34502299  0.37620214    -0.82450
O1191       O  0.41876799  0.61741453  0.65675218    -0.82470
O1192       O  0.45402658  0.36533702  0.40830701    -0.82480
O1193       O  0.54301137  0.59635527  0.63822108    -0.82420
O1194       O  0.42975156  0.64750653  0.39143507    -0.82540
O1195       O  0.55750516  0.61890217  0.35807543    -0.82460
O1196       O  0.47063709  0.58301194  0.65361735    -0.82450
O1197       O  0.52647534  0.34497975  0.40872596    -0.82480
C1198       C  0.56162206  0.33973900  0.40880699     1.07240
C1199       C  0.43610656  0.58559607  0.65979498     1.07130
C1200       C  0.43324295  0.33750229  0.41629277     1.07270
C1201       C  0.56220271  0.59426713  0.66672331     1.07140
O1202       O  0.56677769  0.33518271  0.62870742    -0.82450
O1203       O  0.41616655  0.38727080  0.68536612    -0.82520
O1204       O  0.53310374  0.40505083  0.33070152    -0.82460
O1205       O  0.45446945  0.63896116  0.59065879    -0.82440
O1206       O  0.42724285  0.68957562  0.61561484    -0.82490
O1207       O  0.58174987  0.37211926  0.34703272    -0.82460
O1208       O  0.52660963  0.66081032  0.58650993    -0.82420
O1209       O  0.46583722  0.41499864  0.33400396    -0.82490
Co1210     Co  0.53764029  0.33991033  0.34537058     1.51530
Co1211     Co  0.42986019  0.66830088  0.67021829     1.51690
Co1212     Co  0.49483789  0.37709708  0.36693005     1.51570
Co1213     Co  0.49765375  0.62419906  0.62163758     1.51470
O1214       O  0.48737084  0.33033099  0.66456801    -1.44380
C1215       C  0.55908241  0.66624421  0.59436576     1.07170
C1216       C  0.43182347  0.41700916  0.34016425     1.07260
C1217       C  0.56724972  0.40434460  0.33421615     1.07200
C1218       C  0.43233784  0.66790477  0.58828435     1.07170
O1219       O  0.38520215  0.31054987  0.79061259    -0.82450
O1220       O  0.67293433  0.59360759  0.87047031    -0.82470
O1221       O  0.39534904  0.37171959  0.87779224    -0.82480
O1222       O  0.64622148  0.60409483  0.78715102    -0.82420
O1223       O  0.39303159  0.64287042  0.88059555    -0.82540
O1224       O  0.33326408  0.64278762  0.73805257    -0.82460
O1225       O  0.61466395  0.59291101  0.86429989    -0.82450
O1226       O  0.39797915  0.37017944  0.79821523    -0.82480
C1227       C  0.40627639  0.33814633  0.78354894     1.07240
C1228       C  0.64355666  0.57667439  0.87815032     1.07130
C1229       C  0.40773774  0.33878753  0.88988536     1.07270
C1230       C  0.65780311  0.61008732  0.75101639     1.07140
O1231       O  0.61249700  0.34602161  0.77794439    -0.82450
O1232       O  0.67196197  0.35817409  0.92087222    -0.82520
O1233       O  0.32359488  0.41089658  0.80188231    -0.82460
O1234       O  0.58811106  0.67139390  0.86376777    -0.82440
O1235       O  0.61934088  0.64389351  0.91183358    -0.82490
O1236       O  0.34468672  0.37333013  0.75871779    -0.82460
O1237       O  0.57564336  0.63323738  0.80028387    -0.82420
O1238       O  0.32251467  0.40533587  0.87815278    -0.82490
Co1239     Co  0.33252338  0.32578793  0.78766564     1.51530
Co1240     Co  0.67282332  0.64305192  0.89324602     1.51690
Co1241     Co  0.35767696  0.38643347  0.83867773     1.51570
Co1242     Co  0.61899643  0.64153481  0.82658804     1.51470
O1243       O  0.33025324  0.66940025  0.84208210    -1.44380
C1244       C  0.58273644  0.66166640  0.77602525     1.07170
C1245       C  0.32785805  0.39302648  0.91218199     1.07260
C1246       C  0.33213183  0.40544275  0.76751126     1.07200
C1247       C  0.59047180  0.66162650  0.89934270     1.07170
O1248       O  0.34713183  0.42726545  0.70566096    -0.82450
O1249       O  0.62338847  0.57969047  0.97910568    -0.82470
O1250       O  0.32585138  0.54592120  0.73769283    -0.82480
O1251       O  0.57877452  0.46657815  0.96778764    -0.82420
O1252       O  0.67785851  0.58776615  0.69055514    -0.82540
O1253       O  0.61805227  0.44101595  0.67606070    -0.82460
O1254       O  0.59168369  0.53151744  0.00753752    -0.82450
O1255       O  0.32603071  0.46993857  0.74429196    -0.82480
C1256       C  0.33344827  0.43573346  0.73789942     1.07240
C1257       C  0.59466652  0.56725329  0.99817267     1.07190
C1258       C  0.33088541  0.57976938  0.72496277     1.07270
C1259       C  0.58860407  0.43884389  0.99168032     1.07140
O1260       O  0.34107122  0.40750764  0.97232992    -0.82450
O1261       O  0.39597136  0.54421320  0.97238532    -0.82520
O1262       O  0.40010186  0.46636682  0.70446302    -0.82460
O1263       O  0.61552982  0.53158413  0.92809191    -0.82440
O1264       O  0.67397100  0.53789852  0.92550326    -0.82490
O1265       O  0.39061217  0.46180568  0.64357978    -0.82460
O1266       O  0.64753818  0.45528973  0.93703239    -0.82420
O1267       O  0.39984536  0.54405967  0.70100732    -0.82490
Co1268     Co  0.33781693  0.45569568  0.65704183     1.51530
Co1269     Co  0.67643868  0.55987732  0.97536132     1.51690
Co1270     Co  0.36065033  0.50654953  0.71906116     1.51570
Co1271     Co  0.62132992  0.49394184  0.97626501     1.51470
O1272       O  0.66627258  0.50927103  0.00242637    -1.44380
C1273       C  0.66023547  0.41972382  0.94175441     1.07170
C1274       C  0.41299032  0.55280568  0.66686075     1.07260
C1275       C  0.40982870  0.45319889  0.67210912     1.07200
C1276       C  0.64400423  0.54532264  0.91008849     1.07170
O1277       O  0.57959610  0.34499714  0.70953078    -0.82450
O1278       O  0.41876754  0.61740713  0.99010996    -0.82470
O1279       O  0.45405624  0.36538328  0.74167394    -0.82480
O1280       O  0.54301128  0.59634259  0.97159110    -0.82420
O1281       O  0.42974278  0.64744084  0.72471723    -0.82540
O1282       O  0.55749152  0.61888743  0.69139262    -0.82460
O1283       O  0.47063306  0.58299613  0.98700035    -0.82450
O1284       O  0.52651117  0.34490902  0.74206270    -0.82480
C1285       C  0.56165931  0.33968462  0.74213514     1.07240
C1286       C  0.43609958  0.58558335  0.99315934     1.07130
C1287       C  0.43323217  0.33758260  0.74964587     1.07270
C1288       C  0.56220709  0.59427425  0.00008599     1.07140
O1289       O  0.56674317  0.33519264  0.96206723    -0.82450
O1290       O  0.41613212  0.38724173  0.01880612    -0.82520
O1291       O  0.53315590  0.40504291  0.66407782    -0.82460
O1292       O  0.45447969  0.63890064  0.92400370    -0.82440
O1293       O  0.42727374  0.68954798  0.94891196    -0.82490
O1294       O  0.58180085  0.37209028  0.68037265    -0.82460
O1295       O  0.52661922  0.66076655  0.91985621    -0.82420
O1296       O  0.46591804  0.41506854  0.66743130    -0.82490
Co1297     Co  0.53767277  0.33991344  0.67869025     1.51530
Co1298     Co  0.42986788  0.66831199  0.00353674     1.51690
Co1299     Co  0.49488476  0.37709242  0.70030522     1.51570
Co1300     Co  0.49765770  0.62417196  0.95500287     1.51470
O1301       O  0.48733946  0.33033102  0.99794695    -1.44380
C1302       C  0.55908687  0.66623349  0.92770857     1.07170
C1303       C  0.43189626  0.41707885  0.67351451     1.07260
C1304       C  0.56730600  0.40432191  0.66756775     1.07200
C1305       C  0.43236301  0.66785385  0.92159842     1.07170
O1306       O  0.38510064  0.64388630  0.12386518    -0.82450
O1307       O  0.67293279  0.92692284  0.20380984    -0.82470
O1308       O  0.39533855  0.70506378  0.21108443    -0.82480
O1309       O  0.64623291  0.93740139  0.12048514    -0.82420
O1310       O  0.39299941  0.97621691  0.21395333    -0.82540
O1311       O  0.33339865  0.97606884  0.07142498    -0.82460
O1312       O  0.61466435  0.92621678  0.19762638    -0.82450
O1313       O  0.39792796  0.70349682  0.13151573    -0.82480
C1314       C  0.40620392  0.67146573  0.11683826     1.07240
C1315       C  0.64355704  0.90998331  0.21147883     1.07130
C1316       C  0.40773083  0.67213444  0.22318326     1.07270
C1317       C  0.65786366  0.94338624  0.08436360     1.07140
O1318       O  0.61237080  0.67946805  0.11137082    -0.82450
O1319       O  0.67196471  0.69152534  0.25418121    -0.82520
O1320       O  0.32355364  0.74424342  0.13520263    -0.82460
O1321       O  0.58810349  0.00470072  0.19709096    -0.82440
O1322       O  0.61931680  0.97718636  0.24516306    -0.82490
O1323       O  0.34461389  0.70667336  0.09203477    -0.82460
O1324       O  0.57565498  0.96653265  0.13361076    -0.82420
O1325       O  0.32250563  0.73868091  0.21146866    -0.82490
Co1326     Co  0.33241747  0.65916106  0.12098995     1.51530
Co1327     Co  0.67279844  0.97636517  0.22659237     1.51690
Co1328     Co  0.35764974  0.71977388  0.17198447     1.51570
Co1329     Co  0.61899600  0.97484162  0.15991886     1.51470
O1330       O  0.33022670  0.00271694  0.17543347    -1.44380
C1331       C  0.58276868  0.99494512  0.10933843     1.07170
C1332       C  0.32786284  0.72636945  0.24549405     1.07260
C1333       C  0.33206766  0.73878409  0.10082886     1.07200
C1334       C  0.59046019  0.99493882  0.23266742     1.07170
O1335       O  0.34704135  0.76058393  0.03897121    -0.82450
O1336       O  0.62339077  0.91300933  0.31242283    -0.82470
O1337       O  0.32583291  0.87923212  0.07102613    -0.82480
O1338       O  0.57878908  0.79989011  0.30112273    -0.82420
O1339       O  0.67786669  0.92106968  0.02388845    -0.82540
O1340       O  0.61799801  0.77434725  0.00937491    -0.82460
O1341       O  0.59168763  0.86483916  0.34086532    -0.82450
O1342       O  0.32595077  0.80326506  0.07759461    -0.82480
C1343       C  0.33336615  0.76906038  0.07120985     1.07240
C1344       C  0.59466678  0.90057433  0.33148942     1.07190
C1345       C  0.33089937  0.91307607  0.05830617     1.07270
C1346       C  0.58862519  0.77215102  0.32500653     1.07140
O1347       O  0.34112852  0.74084853  0.30562150    -0.82450
O1348       O  0.39597614  0.87753513  0.30567650    -0.82520
O1349       O  0.40002582  0.79964603  0.03776715    -0.82460
O1350       O  0.61552796  0.86489989  0.26142065    -0.82440
O1351       O  0.67396981  0.87120162  0.25882304    -0.82490
O1352       O  0.39053229  0.79509762  0.97688104    -0.82460
O1353       O  0.64754738  0.78862799  0.27035222    -0.82420
O1354       O  0.39982467  0.87732234  0.03434444    -0.82490
Co1355     Co  0.33773518  0.78902386  0.99035955     1.51530
Co1356     Co  0.67644474  0.89319852  0.30866868     1.51690
Co1357     Co  0.36060190  0.83984404  0.05238122     1.51570
Co1358     Co  0.62133829  0.82726405  0.30959413     1.51470
O1359       O  0.66628395  0.84260080  0.33574337    -1.44380
C1360       C  0.66025824  0.75306770  0.27506320     1.07170
C1361       C  0.41297246  0.88608888  0.00020378     1.07260
C1362       C  0.40974889  0.78648636  0.00540935     1.07200
C1363       C  0.64400297  0.87862974  0.24341159     1.07170
O1364       O  0.57952664  0.67835393  0.04290721    -0.82450
O1365       O  0.41877873  0.95072241  0.32337619    -0.82470
O1366       O  0.45398458  0.69872153  0.07497927    -0.82480
O1367       O  0.54302298  0.92968290  0.30488548    -0.82420
O1368       O  0.42975831  0.98077619  0.05814460    -0.82540
O1369       O  0.55749573  0.95222092  0.02473050    -0.82460
O1370       O  0.47064652  0.91631791  0.32026088    -0.82450
O1371       O  0.52643015  0.67833434  0.07541554    -0.82480
C1372       C  0.56157524  0.67308365  0.07550757     1.07240
C1373       C  0.43611407  0.91890232  0.32642609     1.07130
C1374       C  0.43319325  0.67089230  0.08296705     1.07270
C1375       C  0.56220519  0.92759799  0.33339507     1.07140
O1376       O  0.56674774  0.66851805  0.29543178    -0.82450
O1377       O  0.41613947  0.72059222  0.35210332    -0.82520
O1378       O  0.53309807  0.73838158  0.99737671    -0.82460
O1379       O  0.45448015  0.97226963  0.25730082    -0.82440
O1380       O  0.42725871  0.02288831  0.28225131    -0.82490
O1381       O  0.58173255  0.70543679  0.01372731    -0.82460
O1382       O  0.52661127  0.99413593  0.25317221    -0.82420
O1383       O  0.46583350  0.74836189  0.00066819    -0.82490
Co1384     Co  0.53761304  0.67324686  0.01206282     1.51530
Co1385     Co  0.42986852  0.00160896  0.33685158     1.51690
Co1386     Co  0.49481295  0.71045528  0.03360575     1.51570
Co1387     Co  0.49766375  0.95751306  0.28828812     1.51470
O1388       O  0.48733201  0.66367691  0.33126280    -1.44380
C1389       C  0.55908208  0.99957284  0.26102927     1.07170
C1390       C  0.43181868  0.75037351  0.00681259     1.07260
C1391       C  0.56724519  0.73766098  0.00089046     1.07200
C1392       C  0.43234568  0.00121167  0.25492569     1.07170
O1393       O  0.38512360  0.64390384  0.45722829    -0.82450
O1394       O  0.67293590  0.92691233  0.53710122    -0.82470
O1395       O  0.39529031  0.70510029  0.54443243    -0.82480
O1396       O  0.64623521  0.93742066  0.45379453    -0.82420
O1397       O  0.39304241  0.97615043  0.54723394    -0.82540
O1398       O  0.33320584  0.97612652  0.40468646    -0.82460
O1399       O  0.61466458  0.92623496  0.53093461    -0.82450
O1400       O  0.39791461  0.70352730  0.46486852    -0.82480
C1401       C  0.40621376  0.67149431  0.45020220     1.07240
C1402       C  0.64355277  0.90999012  0.54478321     1.07130
C1403       C  0.40770556  0.67217457  0.55651387     1.07270
C1404       C  0.65779659  0.94341758  0.41765486     1.07140
O1405       O  0.61238546  0.67943509  0.44469451    -0.82450
O1406       O  0.67192471  0.69151882  0.58749817    -0.82520
O1407       O  0.32351792  0.74423087  0.46852628    -0.82460
O1408       O  0.58812421  0.00471073  0.53041822    -0.82440
O1409       O  0.61935818  0.97720927  0.57847990    -0.82490
O1410       O  0.34461813  0.70667023  0.42536699    -0.82460
O1411       O  0.57565453  0.96656624  0.46693161    -0.82420
O1412       O  0.32243516  0.73867052  0.54478603    -0.82490
Co1413     Co  0.33243838  0.65914955  0.45432707     1.51530
Co1414     Co  0.67284366  0.97635089  0.55988390     1.51690
Co1415     Co  0.35760912  0.71978530  0.50532086     1.51570
Co1416     Co  0.61901077  0.97485761  0.49323138     1.51470
O1417       O  0.33026541  0.00270943  0.50872615    -1.44380
C1418       C  0.58273519  0.99500811  0.44268599     1.07170
C1419       C  0.32779356  0.72636491  0.57881150     1.07260
C1420       C  0.33206964  0.73878245  0.43415813     1.07200
C1421       C  0.59048151  0.99493102  0.56599163     1.07170
O1422       O  0.34709190  0.76059808  0.37231579    -0.82450
O1423       O  0.62338030  0.91299849  0.64576154    -0.82470
O1424       O  0.32587161  0.87924810  0.40435714    -0.82480
O1425       O  0.57873864  0.79989484  0.63439177    -0.82420
O1426       O  0.67787931  0.92108808  0.35720360    -0.82540
O1427       O  0.61802585  0.77434816  0.34273378    -0.82460
O1428       O  0.59166091  0.86482013  0.67416664    -0.82450
O1429       O  0.32601812  0.80327904  0.41094815    -0.82480
C1430       C  0.33341246  0.76907220  0.40455276     1.07240
C1431       C  0.59465692  0.90055741  0.66482450     1.07190
C1432       C  0.33089318  0.91309540  0.39161843     1.07270
C1433       C  0.58856199  0.77216110  0.65828904     1.07140
O1434       O  0.34102299  0.74083731  0.63894460    -0.82450
O1435       O  0.39595141  0.87751868  0.63902631    -0.82520
O1436       O  0.40007466  0.79968048  0.37109277    -0.82460
O1437       O  0.61550687  0.86491457  0.59472069    -0.82440
O1438       O  0.67395177  0.87121268  0.59214220    -0.82490
O1439       O  0.39055888  0.79510676  0.31021594    -0.82460
O1440       O  0.64750207  0.78862401  0.60364105    -0.82420
O1441       O  0.39985511  0.87736700  0.36764506    -0.82490
Co1442     Co  0.33776296  0.78903050  0.32370699     1.51530
Co1443     Co  0.67642844  0.89318371  0.64200308     1.51690
Co1444     Co  0.36064863  0.83987169  0.38570960     1.51570
Co1445     Co  0.62129746  0.82725840  0.64288105     1.51470
O1446       O  0.66623916  0.84258170  0.66905020    -1.44380
C1447       C  0.66018693  0.75305652  0.60836725     1.07170
C1448       C  0.41299159  0.88611413  0.33349533     1.07260
C1449       C  0.40978436  0.78650519  0.33873996     1.07200
C1450       C  0.64398791  0.87864484  0.57672379     1.07170
O1451       O  0.57953688  0.67834067  0.37624875    -0.82450
O1452       O  0.41875416  0.95069399  0.65680543    -0.82470
O1453       O  0.45399882  0.69875207  0.40834294    -0.82480
O1454       O  0.54299290  0.92962573  0.63826533    -0.82420
O1455       O  0.42974885  0.98073705  0.39134318    -0.82540
O1456       O  0.55748637  0.95221814  0.35806297    -0.82460
O1457       O  0.47062011  0.91628169  0.65367365    -0.82450
O1458       O  0.52644159  0.67832360  0.40876341    -0.82480
C1459       C  0.56158588  0.67306296  0.40884843     1.07240
C1460       C  0.43608636  0.91886852  0.65982767     1.07130
C1461       C  0.43321327  0.67091970  0.41633931     1.07270
C1462       C  0.56220272  0.92757664  0.66674563     1.07140
O1463       O  0.56674164  0.66849414  0.62875336    -0.82450
O1464       O  0.41609250  0.72054920  0.68545704    -0.82520
O1465       O  0.53311904  0.73838455  0.33073678    -0.82460
O1466       O  0.45447497  0.97217142  0.59067364    -0.82440
O1467       O  0.42725978  0.02281872  0.61557791    -0.82490
O1468       O  0.58175000  0.70543285  0.34708108    -0.82460
O1469       O  0.52662265  0.99403062  0.58650994    -0.82420
O1470       O  0.46586262  0.74837166  0.33401960    -0.82490
Co1471     Co  0.53762204  0.67324987  0.34540895     1.51530
Co1472     Co  0.42985557  0.00160500  0.67021451     1.51690
Co1473     Co  0.49483067  0.71046112  0.36696192     1.51570
Co1474     Co  0.49764845  0.95745274  0.62167490     1.51470
O1475       O  0.48731798  0.66366269  0.66456754    -1.44380
C1476       C  0.55908834  0.99951715  0.59435921     1.07170
C1477       C  0.43184766  0.75038759  0.34015694     1.07260
C1478       C  0.56726543  0.73766206  0.33425393     1.07200
C1479       C  0.43235885  0.00112338  0.58826347     1.07170
O1480       O  0.38505702  0.64386490  0.79047249    -0.82450
O1481       O  0.67293313  0.92692283  0.87047639    -0.82470
O1482       O  0.39535023  0.70504773  0.87771017    -0.82480
O1483       O  0.64624444  0.93739064  0.78714689    -0.82420
O1484       O  0.39298087  0.97621281  0.88065041    -0.82540
O1485       O  0.33342763  0.97605802  0.73809525    -0.82460
O1486       O  0.61466903  0.92620420  0.86428097    -0.82450
O1487       O  0.39791187  0.70346435  0.79815047    -0.82480
C1488       C  0.40617821  0.67143320  0.78347063     1.07240
C1489       C  0.64356161  0.90997673  0.87813728     1.07130
C1490       C  0.40774375  0.67211952  0.88981095     1.07270
C1491       C  0.65790414  0.94336742  0.75103226     1.07140
O1492       O  0.61232748  0.67949990  0.77806054    -0.82450
O1493       O  0.67198027  0.69152182  0.92082368    -0.82520
O1494       O  0.32354083  0.74423114  0.80185801    -0.82460
O1495       O  0.58808125  0.00467826  0.86375701    -0.82440
O1496       O  0.61928935  0.97716792  0.91183278    -0.82490
O1497       O  0.34458513  0.70666793  0.75868140    -0.82460
O1498       O  0.57566875  0.96650948  0.80026473    -0.82420
O1499       O  0.32251972  0.73867527  0.87811021    -0.82490
Co1500     Co  0.33237315  0.65916326  0.78763377     1.51530
Co1501     Co  0.67277839  0.97635785  0.89327231     1.51690
Co1502     Co  0.35764938  0.71975679  0.83862282     1.51570
Co1503     Co  0.61899717  0.97483156  0.82658091     1.51470
O1504       O  0.33022330  0.00272067  0.84210405    -1.44380
C1505       C  0.58279742  0.99490674  0.77597846     1.07170
C1506       C  0.32787632  0.72636471  0.91213513     1.07260
C1507       C  0.33204226  0.73877662  0.76748236     1.07200
C1508       C  0.59043006  0.99491508  0.89933601     1.07170
O1509       O  0.34699247  0.76057538  0.70562632    -0.82450
O1510       O  0.62338062  0.91300504  0.97908989    -0.82470
O1511       O  0.32582204  0.87922680  0.73769538    -0.82480
O1512       O  0.57877833  0.79988203  0.96774344    -0.82420
O1513       O  0.67787471  0.92105185  0.69054944    -0.82540
O1514       O  0.61794654  0.77436935  0.67603553    -0.82460
O1515       O  0.59166582  0.86482728  0.00750095    -0.82450
O1516       O  0.32592081  0.80325898  0.74425546    -0.82480
C1517       C  0.33332929  0.76905369  0.73786749     1.07240
C1518       C  0.59465257  0.90056550  0.99814587     1.07190
C1519       C  0.33089763  0.91306915  0.72497651     1.07270
C1520       C  0.58860507  0.77214770  0.99163741     1.07140
O1521       O  0.34110443  0.74084152  0.97227405    -0.82450
O1522       O  0.39596910  0.87752872  0.97236679    -0.82520
O1523       O  0.39998821  0.79962486  0.70442310    -0.82460
O1524       O  0.61552817  0.86489472  0.92806788    -0.82440
O1525       O  0.67396967  0.87120587  0.92549161    -0.82490
O1526       O  0.39048582  0.79506134  0.64353920    -0.82460
O1527       O  0.64754708  0.78862289  0.93699505    -0.82420
O1528       O  0.39981563  0.87730381  0.70100349    -0.82490
Co1529     Co  0.33768428  0.78901809  0.65702407     1.51530
Co1530     Co  0.67643456  0.89319226  0.97534550     1.51690
Co1531     Co  0.36057983  0.83983162  0.71904257     1.51570
Co1532     Co  0.62132485  0.82725495  0.97623417     1.51470
O1533       O  0.66625915  0.84259091  0.00240414    -1.44380
C1534       C  0.66025521  0.75306194  0.94170938     1.07170
C1535       C  0.41295952  0.88607638  0.66686126     1.07260
C1536       C  0.40970452  0.78645638  0.67206839     1.07200
C1537       C  0.64400613  0.87862821  0.91007089     1.07170
O1538       O  0.57951271  0.67835487  0.70956670    -0.82450
O1539       O  0.41874398  0.95070481  0.99020927    -0.82470
O1540       O  0.45397025  0.69869433  0.74163556    -0.82480
O1541       O  0.54298616  0.92966707  0.97158139    -0.82420
O1542       O  0.42969652  0.98080555  0.72474642    -0.82540
O1543       O  0.55750875  0.95221846  0.69139042    -0.82460
O1544       O  0.47061704  0.91630771  0.98698484    -0.82450
O1545       O  0.52641153  0.67835421  0.74206787    -0.82480
C1546       C  0.56155548  0.67309468  0.74216520     1.07240
C1547       C  0.43608765  0.91888458  0.99317702     1.07130
C1548       C  0.43319408  0.67085121  0.74962564     1.07270
C1549       C  0.56219408  0.92759321  0.00006891     1.07140
O1550       O  0.56674634  0.66850339  0.96209232    -0.82450
O1551       O  0.41611350  0.72057276  0.01874125    -0.82520
O1552       O  0.53306616  0.73837698  0.66401537    -0.82460
O1553       O  0.45443039  0.97225335  0.92404834    -0.82440
O1554       O  0.42717762  0.02284892  0.94901981    -0.82490
O1555       O  0.58170622  0.70544676  0.68037886    -0.82460
O1556       O  0.52657271  0.99411145  0.91986527    -0.82420
O1557       O  0.46579059  0.74833609  0.66729960    -0.82490
Co1558     Co  0.53760239  0.67323503  0.67872425     1.51530
Co1559     Co  0.42984144  0.00160403  0.00363308     1.51690
Co1560     Co  0.49478785  0.71045474  0.70025162     1.51570
Co1561     Co  0.49762399  0.95750431  0.95501105     1.51470
O1562       O  0.48732611  0.66366736  0.99791003    -1.44380
C1563       C  0.55904835  0.99955480  0.92770626     1.07170
C1564       C  0.43177961  0.75034757  0.67348140     1.07260
C1565       C  0.56721147  0.73766593  0.66753720     1.07200
C1566       C  0.43228657  0.00118608  0.92168164     1.07170
O1567       O  0.71844194  0.97720536  0.12391116    -0.82450
O1568       O  0.00629341  0.26026200  0.20381582    -0.82470
O1569       O  0.72861663  0.03839909  0.21108966    -0.82480
O1570       O  0.97960865  0.27072862  0.12048328    -0.82420
O1571       O  0.72635879  0.30955992  0.21397545    -0.82540
O1572       O  0.66691176  0.30936631  0.07144856    -0.82460
O1573       O  0.94802861  0.25955526  0.19761207    -0.82450
O1574       O  0.73123159  0.03683194  0.13153635    -0.82480
C1575       C  0.73953621  0.00479165  0.11688542     1.07240
C1576       C  0.97691677  0.24332075  0.21146931     1.07130
C1577       C  0.74103677  0.00547343  0.22316646     1.07270
C1578       C  0.99127466  0.27669982  0.08437076     1.07140
O1579       O  0.94571314  0.01275300  0.11134459    -0.82450
O1580       O  0.00524790  0.02483729  0.25417349    -0.82520
O1581       O  0.65682474  0.07754385  0.13520692    -0.82460
O1582       O  0.92146086  0.33803085  0.19707642    -0.82440
O1583       O  0.95266487  0.31051991  0.24515793    -0.82490
O1584       O  0.67794177  0.03998900  0.09204964    -0.82460
O1585       O  0.90904257  0.29984939  0.13360094    -0.82420
O1586       O  0.65575848  0.07197225  0.21146041    -0.82490
Co1587     Co  0.66576086  0.99246147  0.12099589     1.51530
Co1588     Co  0.00615044  0.30970175  0.22660610     1.51690
Co1589     Co  0.69092705  0.05309199  0.17198965     1.51570
Co1590     Co  0.95236901  0.30817707  0.15991117     1.51470
O1591       O  0.66360081  0.33606078  0.17544286    -1.44380
C1592       C  0.91618016  0.32823768  0.10930751     1.07170
C1593       C  0.66113050  0.05967069  0.24548329     1.07260
C1594       C  0.66535755  0.07209133  0.10083683     1.07200
C1595       C  0.92380843  0.32826582  0.23265397     1.07170
O1596       O  0.68029967  0.09388846  0.03897751    -0.82450
O1597       O  0.95673812  0.24633591  0.31240577    -0.82470
O1598       O  0.65912930  0.21256362  0.07101403    -0.82480
O1599       O  0.91209092  0.13323040  0.30107300    -0.82420
O1600       O  0.01119738  0.25438110  0.02387930    -0.82540
O1601       O  0.95126621  0.10769941  0.00937338    -0.82460
O1602       O  0.92501595  0.19816893  0.34082914    -0.82450
O1603       O  0.65922035  0.13657813  0.07759551    -0.82480
C1604       C  0.66663415  0.10236922  0.07121609     1.07240
C1605       C  0.92801170  0.23390382  0.33146903     1.07190
C1606       C  0.66424557  0.24640123  0.05830306     1.07270
C1607       C  0.92191619  0.10549164  0.32496349     1.07140
O1608       O  0.67438054  0.07415554  0.30560672    -0.82450
O1609       O  0.72933143  0.21085445  0.30565480    -0.82520
O1610       O  0.73329724  0.13294289  0.03778680    -0.82460
O1611       O  0.94886670  0.19823607  0.26138738    -0.82440
O1612       O  0.00731208  0.20452273  0.25881016    -0.82490
O1613       O  0.72380863  0.12835160  0.97690137    -0.82460
O1614       O  0.98084618  0.12194966  0.27031510    -0.82420
O1615       O  0.73313754  0.21062954  0.03436621    -0.82490
Co1616     Co  0.67100166  0.12233197  0.99037342     1.51530
Co1617     Co  0.00978735  0.22652111  0.30865442     1.51690
Co1618     Co  0.69388939  0.17315562  0.05238786     1.51570
Co1619     Co  0.95465222  0.16059257  0.30955533     1.51470
O1620       O  0.99960185  0.17592191  0.33571372    -1.44380
C1621       C  0.99353063  0.08638205  0.27503996     1.07170
C1622       C  0.74629413  0.21941895  0.00023081     1.07260
C1623       C  0.74302149  0.11976291  0.00543875     1.07200
C1624       C  0.97735037  0.21196075  0.24339143     1.07170
O1625       O  0.91285569  0.01167627  0.04288676    -0.82450
O1626       O  0.75212302  0.28405098  0.32343901    -0.82470
O1627       O  0.78732410  0.03204109  0.07502729    -0.82480
O1628       O  0.87636165  0.26300420  0.30488958    -0.82420
O1629       O  0.76309933  0.31417378  0.05814450    -0.82540
O1630       O  0.89089341  0.28557776  0.02469706    -0.82460
O1631       O  0.80399033  0.24964502  0.32028757    -0.82450
O1632       O  0.85976524  0.01164932  0.07540839    -0.82480
C1633       C  0.89491008  0.00639531  0.07548958     1.07240
C1634       C  0.76945738  0.25222509  0.32644835     1.07130
C1635       C  0.76654963  0.00420081  0.08303582     1.07270
C1636       C  0.89556080  0.26093289  0.33338271     1.07140
O1637       O  0.90007898  0.00181540  0.29541326    -0.82450
O1638       O  0.74944382  0.05385983  0.35209293    -0.82520
O1639       O  0.86639292  0.07169395  0.99735992    -0.82460
O1640       O  0.78781870  0.30558820  0.25733501    -0.82440
O1641       O  0.76061939  0.35621778  0.28228300    -0.82490
O1642       O  0.91504045  0.03876906  0.01370511    -0.82460
O1643       O  0.85995724  0.32743966  0.25316594    -0.82420
O1644       O  0.79911849  0.08165883  0.00068951    -0.82490
Co1645     Co  0.87093442  0.00655885  0.01205872     1.51530
Co1646     Co  0.76323488  0.33495058  0.33688635     1.51690
Co1647     Co  0.82812863  0.04376941  0.03361789     1.51570
Co1648     Co  0.83100690  0.29083544  0.28830689     1.51470
O1649       O  0.82066449  0.99697302  0.33121493    -1.44380
C1650       C  0.89242713  0.33289666  0.26101394     1.07170
C1651       C  0.76510638  0.08366082  0.00686709     1.07260
C1652       C  0.90054052  0.07098726  0.00086769     1.07200
C1653       C  0.76569767  0.33453922  0.25495914     1.07170
O1654       O  0.71838060  0.97716678  0.45707732    -0.82450
O1655       O  0.00631849  0.26028820  0.53712451    -0.82470
O1656       O  0.72873028  0.03832192  0.54435158    -0.82480
O1657       O  0.97963281  0.27076006  0.45379857    -0.82420
O1658       O  0.72642558  0.30951836  0.54724266    -0.82540
O1659       O  0.66674045  0.30942384  0.40470714    -0.82460
O1660       O  0.94805219  0.25959260  0.53092616    -0.82450
O1661       O  0.73127790  0.03674765  0.46478661    -0.82480
C1662       C  0.73952083  0.00472143  0.45009205     1.07240
C1663       C  0.97693905  0.24335222  0.54477961     1.07130
C1664       C  0.74110349  0.00538855  0.55646032     1.07270
C1665       C  0.99124852  0.27673762  0.41767224     1.07140
O1666       O  0.94567487  0.01283927  0.44470985    -0.82450
O1667       O  0.00531898  0.02484406  0.58746460    -0.82520
O1668       O  0.65693460  0.07756048  0.46850559    -0.82460
O1669       O  0.92148696  0.33805741  0.53039889    -0.82440
O1670       O  0.95271351  0.31057337  0.57847693    -0.82490
O1671       O  0.67793472  0.03999358  0.42531666    -0.82460
O1672       O  0.90905704  0.29989251  0.46691744    -0.82420
O1673       O  0.65591710  0.07198479  0.54474828    -0.82490
Co1674     Co  0.66569816  0.99249597  0.45426727     1.51530
Co1675     Co  0.00620144  0.30973241  0.55990413     1.51690
Co1676     Co  0.69103407  0.05305457  0.50526312     1.51570
Co1677     Co  0.95239515  0.30821088  0.49322454     1.51470
O1678       O  0.66364957  0.33606801  0.50873451    -1.44380
C1679       C  0.91616169  0.32830538  0.44264422     1.07170
C1680       C  0.66125104  0.05966546  0.57877519     1.07260
C1681       C  0.66542035  0.07210856  0.43412704     1.07200
C1682       C  0.92383695  0.32828335  0.56597499     1.07170
O1683       O  0.68036932  0.09390901  0.37227327    -0.82450
O1684       O  0.95675386  0.24633694  0.64571237    -0.82470
O1685       O  0.65922178  0.21257059  0.40433253    -0.82480
O1686       O  0.91209127  0.13322702  0.63434712    -0.82420
O1687       O  0.01123063  0.25440697  0.35719340    -0.82540
O1688       O  0.95130501  0.10769688  0.34270681    -0.82460
O1689       O  0.92501841  0.19816665  0.67410816    -0.82450
O1690       O  0.65932088  0.13659743  0.41090688    -0.82480
C1691       C  0.66671700  0.10239031  0.40451650     1.07240
C1692       C  0.92802956  0.23390441  0.66477720     1.07190
C1693       C  0.66428150  0.24641462  0.39160431     1.07270
C1694       C  0.92189379  0.10550937  0.65827343     1.07140
O1695       O  0.67438589  0.07412940  0.63894722    -0.82450
O1696       O  0.72931660  0.21085820  0.63903443    -0.82520
O1697       O  0.73337404  0.13295674  0.37105007    -0.82460
O1698       O  0.94888430  0.19824426  0.59467254    -0.82440
O1699       O  0.00732912  0.20453349  0.59211397    -0.82490
O1700       O  0.72384789  0.12837996  0.31017434    -0.82460
O1701       O  0.98087130  0.12194670  0.60361620    -0.82420
O1702       O  0.73320120  0.21064799  0.36762817    -0.82490
Co1703     Co  0.67104803  0.12234385  0.32367284     1.51530
Co1704     Co  0.00979521  0.22651290  0.64197077     1.51690
Co1705     Co  0.69397234  0.17317028  0.38567561     1.51570
Co1706     Co  0.95465620  0.16059155  0.64283761     1.51470
O1707       O  0.99959387  0.17590954  0.66902312    -1.44380
C1708       C  0.99353820  0.08637386  0.60835454     1.07170
C1709       C  0.74633817  0.21942475  0.33348496     1.07260
C1710       C  0.74307278  0.11977346  0.33869825     1.07200
C1711       C  0.97737031  0.21197874  0.57669026     1.07170
O1712       O  0.91285555  0.01168103  0.37621943    -0.82450
O1713       O  0.75210131  0.28407308  0.65680687    -0.82470
O1714       O  0.78731328  0.03198792  0.40826891    -0.82480
O1715       O  0.87633480  0.26295402  0.63827565    -0.82420
O1716       O  0.76312286  0.31410018  0.39138625    -0.82540
O1717       O  0.89086366  0.28556379  0.35803972    -0.82460
O1718       O  0.80395861  0.24964722  0.65374386    -0.82450
O1719       O  0.85975682  0.01167819  0.40872346    -0.82480
C1720       C  0.89490103  0.00642391  0.40881953     1.07240
C1721       C  0.76942144  0.25223881  0.65986561     1.07130
C1722       C  0.76653968  0.00414127  0.41625304     1.07270
C1723       C  0.89558892  0.26093873  0.66671612     1.07140
O1724       O  0.90007366  0.00183901  0.62873453    -0.82450
O1725       O  0.74942206  0.05386000  0.68540896    -0.82520
O1726       O  0.86641733  0.07170618  0.33067653    -0.82460
O1727       O  0.78782542  0.30549829  0.59070000    -0.82440
O1728       O  0.76068706  0.35620385  0.61555264    -0.82490
O1729       O  0.91505327  0.03876997  0.34703642    -0.82460
O1730       O  0.85998317  0.32732423  0.58649769    -0.82420
O1731       O  0.79914546  0.08163597  0.33393042    -0.82490
Co1732     Co  0.87094294  0.00656021  0.34537894     1.51530
Co1733     Co  0.76324187  0.33499610  0.67019275     1.51690
Co1734     Co  0.82813523  0.04376550  0.36689720     1.51570
Co1735     Co  0.83099906  0.29078697  0.62170216     1.51470
O1736       O  0.82065639  0.99696183  0.66458380    -1.44380
C1737       C  0.89244084  0.33286623  0.59433659     1.07170
C1738       C  0.76513573  0.08365555  0.34011362     1.07260
C1739       C  0.90056266  0.07099381  0.33420139     1.07200
C1740       C  0.76575190  0.33448245  0.58826015     1.07170
O1741       O  0.71847998  0.97719769  0.79062078    -0.82450
O1742       O  0.00631648  0.26025569  0.87047749    -0.82470
O1743       O  0.72860636  0.03839152  0.87779853    -0.82480
O1744       O  0.97964126  0.27072982  0.78712721    -0.82420
O1745       O  0.72637012  0.30954198  0.88065119    -0.82540
O1746       O  0.66691966  0.30935914  0.73810409    -0.82460
O1747       O  0.94805462  0.25955219  0.86426152    -0.82450
O1748       O  0.73125249  0.03683031  0.79821863    -0.82480
C1749       C  0.73955663  0.00479247  0.78356088     1.07240
C1750       C  0.97693818  0.24331728  0.87812722     1.07130
C1751       C  0.74100811  0.00546439  0.88989273     1.07270
C1752       C  0.99129202  0.27670431  0.75100957     1.07140
O1753       O  0.94575008  0.01272979  0.77797885    -0.82450
O1754       O  0.00525121  0.02481793  0.92083816    -0.82520
O1755       O  0.65685140  0.07754264  0.80187026    -0.82460
O1756       O  0.92147666  0.33801571  0.86373839    -0.82440
O1757       O  0.95269072  0.31052902  0.91182257    -0.82490
O1758       O  0.67796883  0.03997620  0.75872036    -0.82460
O1759       O  0.90907127  0.29984925  0.80024857    -0.82420
O1760       O  0.65575829  0.07196953  0.87813664    -0.82490
Co1761     Co  0.66580176  0.99243851  0.78767020     1.51530
Co1762     Co  0.00618327  0.30969856  0.89326157     1.51690
Co1763     Co  0.69093668  0.05308508  0.83867244     1.51570
Co1764     Co  0.95239890  0.30817418  0.82656232     1.51470
O1765       O  0.66361938  0.33605924  0.84210534    -1.44380
C1766       C  0.91619905  0.32824603  0.77596260     1.07170
C1767       C  0.66110792  0.05966391  0.91216486     1.07260
C1768       C  0.66538264  0.07208161  0.76750021     1.07200
C1769       C  0.92382002  0.32824861  0.89931785     1.07170
O1770       O  0.68032451  0.09387662  0.70563094    -0.82450
O1771       O  0.95672715  0.24632233  0.97906527    -0.82470
O1772       O  0.65911413  0.21255828  0.73765417    -0.82480
O1773       O  0.91207650  0.13321211  0.96770570    -0.82420
O1774       O  0.01122864  0.25438623  0.69051726    -0.82540
O1775       O  0.95126202  0.10773439  0.67604145    -0.82460
O1776       O  0.92499306  0.19815379  0.00746678    -0.82450
O1777       O  0.65922489  0.13656651  0.74423925    -0.82480
C1778       C  0.66665240  0.10235693  0.73786852     1.07240
C1779       C  0.92800019  0.23389051  0.99812685     1.07190
C1780       C  0.66423501  0.24639706  0.72494937     1.07270
C1781       C  0.92188982  0.10548451  0.99161572     1.07140
O1782       O  0.67432179  0.07414181  0.97230579    -0.82450
O1783       O  0.72930967  0.21084852  0.97238308    -0.82520
O1784       O  0.73331154  0.13294722  0.70444185    -0.82460
O1785       O  0.94887396  0.19822545  0.92803103    -0.82440
O1786       O  0.00731919  0.20451752  0.92548150    -0.82490
O1787       O  0.72383511  0.12836987  0.64355371    -0.82460
O1788       O  0.98084736  0.12193173  0.93697604    -0.82420
O1789       O  0.73313210  0.21064321  0.70101922    -0.82490
Co1790     Co  0.67103412  0.12232071  0.65701696     1.51530
Co1791     Co  0.00977330  0.22650411  0.97533641     1.51690
Co1792     Co  0.69388909  0.17315537  0.71903451     1.51570
Co1793     Co  0.95463625  0.16057754  0.97620110     1.51470
O1794       O  0.99957153  0.17590124  0.00238624    -1.44380
C1795       C  0.99352219  0.08636149  0.94170930     1.07170
C1796       C  0.74629237  0.21943554  0.66688508     1.07260
C1797       C  0.74304319  0.11977392  0.67209138     1.07200
C1798       C  0.97736314  0.21195544  0.91004995     1.07170
O1799       O  0.91286762  0.01171138  0.70954030    -0.82450
O1800       O  0.75208534  0.28405632  0.99023033    -0.82470
O1801       O  0.78732756  0.03203383  0.74167248    -0.82480
O1802       O  0.87632097  0.26296702  0.97160220    -0.82420
O1803       O  0.76305231  0.31420825  0.72472859    -0.82540
O1804       O  0.89094034  0.28560900  0.69133501    -0.82460
O1805       O  0.80394886  0.24964310  0.98704893    -0.82450
O1806       O  0.85978002  0.01161506  0.74206247    -0.82480
C1807       C  0.89492827  0.00639521  0.74214218     1.07240
C1808       C  0.76941614  0.25222558  0.99321709     1.07130
C1809       C  0.76652739  0.00421523  0.74966867     1.07270
C1810       C  0.89555701  0.26092508  0.00006071     1.07140
O1811       O  0.90006234  0.00180954  0.96207907    -0.82450
O1812       O  0.74942247  0.05386101  0.01884579    -0.82520
O1813       O  0.86639740  0.07170739  0.66402867    -0.82460
O1814       O  0.78779095  0.30554813  0.92406959    -0.82440
O1815       O  0.76059898  0.35619463  0.94899357    -0.82490
O1816       O  0.91504980  0.03879588  0.68036849    -0.82460
O1817       O  0.85995661  0.32736570  0.91984798    -0.82420
O1818       O  0.79914255  0.08167162  0.66737810    -0.82490
Co1819     Co  0.87094877  0.00657874  0.67870868     1.51530
Co1820     Co  0.76322209  0.33497279  0.00361811     1.51690
Co1821     Co  0.82814130  0.04375413  0.70028211     1.51570
Co1822     Co  0.83097758  0.29080903  0.95503812     1.51470
O1823       O  0.82063994  0.99697576  0.99793323    -1.44380
C1824       C  0.89242553  0.33285992  0.92768424     1.07170
C1825       C  0.76512542  0.08366867  0.67350583     1.07260
C1826       C  0.90054545  0.07101097  0.66753032     1.07200
C1827       C  0.76568278  0.33450655  0.92167559     1.07170
O1828       O  0.71854162  0.31055776  0.12399314    -0.82450
O1829       O  0.00627535  0.59361758  0.20381295    -0.82470
O1830       O  0.72863829  0.37174179  0.21113136    -0.82480
O1831       O  0.97956933  0.60409439  0.12049482    -0.82420
O1832       O  0.72635665  0.64288798  0.21395871    -0.82540
O1833       O  0.66669064  0.64277132  0.07141607    -0.82460
O1834       O  0.94800656  0.59291699  0.19763624    -0.82450
O1835       O  0.73128548  0.37020203  0.13157302    -0.82480
C1836       C  0.73960796  0.33816036  0.11693195     1.07240
C1837       C  0.97689932  0.57668034  0.21148407     1.07130
C1838       C  0.74105604  0.33881325  0.22320042     1.07270
C1839       C  0.99117621  0.61007855  0.08436640     1.07140
O1840       O  0.94580993  0.34602659  0.11128836    -0.82450
O1841       O  0.00526864  0.35816855  0.25420007    -0.82520
O1842       O  0.65687161  0.41088252  0.13522760    -0.82460
O1843       O  0.92144745  0.67139884  0.19710444    -0.82440
O1844       O  0.95266815  0.64389305  0.24517399    -0.82490
O1845       O  0.67801480  0.37333113  0.09207181    -0.82460
O1846       O  0.90899419  0.63322860  0.13362716    -0.82420
O1847       O  0.65577836  0.40531383  0.21148502    -0.82490
Co1848     Co  0.66586477  0.32577913  0.12101334     1.51530
Co1849     Co  0.00615298  0.64305737  0.22659776     1.51690
Co1850     Co  0.69096217  0.38643953  0.17202120     1.51570
Co1851     Co  0.95234058  0.64153950  0.15992877     1.51470
O1852       O  0.66358907  0.66941530  0.17543285    -1.44380
C1853       C  0.91609920  0.66164395  0.10935612     1.07170
C1854       C  0.66114348  0.39301377  0.24550978     1.07260
C1855       C  0.66542570  0.40543504  0.10086004     1.07200
C1856       C  0.92380362  0.66163295  0.23268053     1.07170
O1857       O  0.68038891  0.42725549  0.03900737    -0.82450
O1858       O  0.95673255  0.57968969  0.31242904    -0.82470
O1859       O  0.65916580  0.54592339  0.07104251    -0.82480
O1860       O  0.91210745  0.46658005  0.30109682    -0.82420
O1861       O  0.01119642  0.58775533  0.02389814    -0.82540
O1862       O  0.95133874  0.44103398  0.00940752    -0.82460
O1863       O  0.92502267  0.53151662  0.34085446    -0.82450
O1864       O  0.65931117  0.46993388  0.07764020    -0.82480
C1865       C  0.66672164  0.43572609  0.07124871     1.07240
C1866       C  0.92800806  0.56725278  0.33149233     1.07190
C1867       C  0.66422672  0.57976781  0.05831707     1.07270
C1868       C  0.92193908  0.43883884  0.32498088     1.07140
O1869       O  0.67438789  0.40750574  0.30563576    -0.82450
O1870       O  0.72932281  0.54421676  0.30569023    -0.82520
O1871       O  0.73337546  0.46634057  0.03780521    -0.82460
O1872       O  0.94887025  0.53158494  0.26141145    -0.82440
O1873       O  0.00731282  0.53789516  0.25882544    -0.82490
O1874       O  0.72387268  0.46174314  0.97692646    -0.82460
O1875       O  0.98086355  0.45528879  0.27034223    -0.82420
O1876       O  0.73316357  0.54403091  0.03435713    -0.82490
Co1877     Co  0.67106832  0.45569623  0.99040279     1.51530
Co1878     Co  0.00978481  0.55987768  0.30867949     1.51690
Co1879     Co  0.69394658  0.50653627  0.05240878     1.51570
Co1880     Co  0.95466537  0.49394033  0.30957965     1.51470
O1881       O  0.99961433  0.50926961  0.33573502    -1.44380
C1882       C  0.99355443  0.41972136  0.27506731     1.07170
C1883       C  0.74630886  0.55279059  0.00021184     1.07260
C1884       C  0.74309446  0.45315630  0.00545773     1.07200
C1885       C  0.97734631  0.54532264  0.24341178     1.07170
O1886       O  0.91290821  0.34500858  0.04287521    -0.82450
O1887       O  0.75211084  0.61740426  0.32350054    -0.82470
O1888       O  0.78737977  0.36540218  0.07505004    -0.82480
O1889       O  0.87635650  0.59635750  0.30490978    -0.82420
O1890       O  0.76305632  0.64748921  0.05805730    -0.82540
O1891       O  0.89083579  0.61889524  0.02473583    -0.82460
O1892       O  0.80398081  0.58299929  0.32031721    -0.82450
O1893       O  0.85982568  0.34494070  0.07541298    -0.82480
C1894       C  0.89497250  0.33970212  0.07548086     1.07240
C1895       C  0.76944885  0.58557977  0.32649254     1.07130
C1896       C  0.76658428  0.33758156  0.08305009     1.07270
C1897       C  0.89554931  0.59427671  0.33340806     1.07140
O1898       O  0.90009326  0.33516599  0.29539504    -0.82450
O1899       O  0.74946903  0.38720800  0.35211394    -0.82520
O1900       O  0.86645283  0.40504584  0.99740797    -0.82460
O1901       O  0.78781012  0.63892138  0.25735679    -0.82440
O1902       O  0.76058761  0.68954811  0.28228998    -0.82490
O1903       O  0.91510186  0.37210468  0.01371384    -0.82460
O1904       O  0.85994908  0.66079740  0.25319774    -0.82420
O1905       O  0.79919562  0.41504640  0.00076316    -0.82490
Co1906     Co  0.87098089  0.33991662  0.01204657     1.51530
Co1907     Co  0.76321018  0.66831628  0.33691097     1.51690
Co1908     Co  0.82818936  0.37710546  0.03365274     1.51570
Co1909     Co  0.83099624  0.62419028  0.28833792     1.51470
O1910       O  0.82068975  0.33031568  0.33122931    -1.44380
C1911       C  0.89242029  0.66625166  0.26104720     1.07170
C1912       C  0.76517677  0.41704717  0.00688374     1.07260
C1913       C  0.90060202  0.40433231  0.00090399     1.07200
C1914       C  0.76568231  0.66786542  0.25496823     1.07170
O1915       O  0.71848091  0.31052148  0.45716992    -0.82450
O1916       O  0.00628088  0.59360925  0.53713764    -0.82470
O1917       O  0.72876440  0.37169213  0.54436680    -0.82480
O1918       O  0.97958455  0.60408532  0.45382019    -0.82420
O1919       O  0.72634812  0.64290738  0.54728660    -0.82540
O1920       O  0.66672738  0.64275424  0.40474772    -0.82460
O1921       O  0.94801345  0.59290220  0.53096028    -0.82450
O1922       O  0.73132139  0.37012889  0.46481245    -0.82480
C1923       C  0.73959258  0.33809239  0.45014791     1.07240
C1924       C  0.97690683  0.57666911  0.54480941     1.07130
C1925       C  0.74114591  0.33875918  0.55646410     1.07270
C1926       C  0.99120646  0.61006990  0.41769576     1.07140
O1927       O  0.94576885  0.34612336  0.44465218    -0.82450
O1928       O  0.00535701  0.35820318  0.58749378    -0.82520
O1929       O  0.65695581  0.41089793  0.46853094    -0.82460
O1930       O  0.92144491  0.67138413  0.53042587    -0.82440
O1931       O  0.95265689  0.64387138  0.57849713    -0.82490
O1932       O  0.67800140  0.37333724  0.42534743    -0.82460
O1933       O  0.90900416  0.63320502  0.46695563    -0.82420
O1934       O  0.65594748  0.40534848  0.54478408    -0.82490
Co1935     Co  0.66580406  0.32581376  0.45428713     1.51530
Co1936     Co  0.00614170  0.64305019  0.55992170     1.51690
Co1937     Co  0.69106427  0.38641812  0.50528776     1.51570
Co1938     Co  0.95234438  0.64152532  0.49325392     1.51470
O1939       O  0.66358363  0.66940088  0.50875870    -1.44380
C1940       C  0.91611101  0.66162204  0.44268751     1.07170
C1941       C  0.66129523  0.39303235  0.57881012     1.07260
C1942       C  0.66545279  0.40544530  0.43415434     1.07200
C1943       C  0.92379763  0.66162052  0.56600273     1.07170
O1944       O  0.68037942  0.42725403  0.37229859    -0.82450
O1945       O  0.95673071  0.57969955  0.64575944    -0.82470
O1946       O  0.65920227  0.54590846  0.40436200    -0.82480
O1947       O  0.91213150  0.46658231  0.63443656    -0.82420
O1948       O  0.01121991  0.58775260  0.35722331    -0.82540
O1949       O  0.95132779  0.44104309  0.34272548    -0.82460
O1950       O  0.92502420  0.53152582  0.67418602    -0.82450
O1951       O  0.65932001  0.46993390  0.41093549    -0.82480
C1952       C  0.66672783  0.43572849  0.40454344     1.07240
C1953       C  0.92800434  0.56726256  0.66481937     1.07190
C1954       C  0.66425996  0.57975398  0.39163951     1.07270
C1955       C  0.92196110  0.43885088  0.65833218     1.07140
O1956       O  0.67450298  0.40751496  0.63896421    -0.82450
O1957       O  0.72931523  0.54422351  0.63903936    -0.82520
O1958       O  0.73338015  0.46631064  0.37108856    -0.82460
O1959       O  0.94887752  0.53158728  0.59474780    -0.82440
O1960       O  0.00731796  0.53789697  0.59216182    -0.82490
O1961       O  0.72386147  0.46172538  0.31021197    -0.82460
O1962       O  0.98090021  0.45530678  0.60368083    -0.82420
O1963       O  0.73318925  0.54400245  0.36766625    -0.82490
Co1964     Co  0.67105698  0.45569506  0.32370226     1.51530
Co1965     Co  0.00978325  0.55988109  0.64201631     1.51690
Co1966     Co  0.69396592  0.50651760  0.38570910     1.51570
Co1967     Co  0.95468121  0.49394956  0.64291808     1.51470
O1968       O  0.99962122  0.50927806  0.66908381    -1.44380
C1969       C  0.99360556  0.41974318  0.60839540     1.07170
C1970       C  0.74632902  0.55278066  0.33352396     1.07260
C1971       C  0.74308596  0.45312512  0.33873866     1.07200
C1972       C  0.97735315  0.54532029  0.57674497     1.07170
O1973       O  0.91290250  0.34501584  0.37619620    -0.82450
O1974       O  0.75210164  0.61741528  0.65675620    -0.82470
O1975       O  0.78736996  0.36534459  0.40830228    -0.82480
O1976       O  0.87634756  0.59636468  0.63823333    -0.82420
O1977       O  0.76308759  0.64749955  0.39142753    -0.82540
O1978       O  0.89083707  0.61889658  0.35807511    -0.82460
O1979       O  0.80397068  0.58301297  0.65363030    -0.82450
O1980       O  0.85981517  0.34499033  0.40872141    -0.82480
C1981       C  0.89496118  0.33974143  0.40880193     1.07240
C1982       C  0.76943883  0.58559635  0.65980123     1.07130
C1983       C  0.76659074  0.33750682  0.41629381     1.07270
C1984       C  0.89554209  0.59428713  0.66673209     1.07140
O1985       O  0.90009917  0.33521438  0.62870753    -0.82450
O1986       O  0.74948650  0.38726621  0.68536960    -0.82520
O1987       O  0.86644721  0.40504727  0.33069027    -0.82460
O1988       O  0.78780499  0.63895396  0.59066362    -0.82440
O1989       O  0.76057764  0.68957180  0.61561208    -0.82490
O1990       O  0.91509023  0.37211117  0.34702548    -0.82460
O1991       O  0.85994333  0.66080890  0.58651378    -0.82420
O1992       O  0.79917505  0.41500051  0.33399168    -0.82490
Co1993     Co  0.87097611  0.33990689  0.34536944     1.51530
Co1994     Co  0.76319584  0.66830267  0.67021839     1.51690
Co1995     Co  0.82817834  0.37710317  0.36692152     1.51570
Co1996     Co  0.83098881  0.62419997  0.62164646     1.51470
O1997       O  0.82069981  0.33033464  0.66457567    -1.44380
C1998       C  0.89241484  0.66625307  0.59436685     1.07170
C1999       C  0.76516148  0.41701040  0.34015683     1.07260
C2000       C  0.90059302  0.40433740  0.33420722     1.07200
C2001       C  0.76567295  0.66789693  0.58828443     1.07170
O2002       O  0.71855634  0.31054847  0.79063529    -0.82450
O2003       O  0.00627421  0.59360902  0.87046740    -0.82470
O2004       O  0.72867872  0.37171927  0.87779672    -0.82480
O2005       O  0.97956696  0.60409319  0.78715212    -0.82420
O2006       O  0.72636215  0.64287498  0.88059547    -0.82540
O2007       O  0.66660103  0.64278947  0.73805558    -0.82460
O2008       O  0.94800419  0.59291053  0.86429578    -0.82450
O2009       O  0.73131420  0.37018555  0.79822158    -0.82480
C2010       C  0.73962058  0.33815091  0.78356210     1.07240
C2011       C  0.97689726  0.57667409  0.87814541     1.07130
C2012       C  0.74107143  0.33878791  0.88988706     1.07270
C2013       C  0.99114885  0.61008408  0.75101769     1.07140
O2014       O  0.94582446  0.34604130  0.77795071    -0.82450
O2015       O  0.00532318  0.35816742  0.92085627    -0.82520
O2016       O  0.65692227  0.41088718  0.80188719    -0.82460
O2017       O  0.92144786  0.67139235  0.86376332    -0.82440
O2018       O  0.95267792  0.64389416  0.91182976    -0.82490
O2019       O  0.67802869  0.37332589  0.75872307    -0.82460
O2020       O  0.90898582  0.63323774  0.80027749    -0.82420
O2021       O  0.65583864  0.40532526  0.87815531    -0.82490
Co2022     Co  0.66587903  0.32577407  0.78766882     1.51530
Co2023     Co  0.00616099  0.64305396  0.89324269     1.51690
Co2024     Co  0.69100625  0.38642966  0.83868234     1.51570
Co2025     Co  0.95233714  0.64153440  0.82658478     1.51470
O2026       O  0.66358408  0.66940577  0.84208264    -1.44380
C2027       C  0.91607594  0.66167155  0.77602383     1.07170
C2028       C  0.66118727  0.39301921  0.91218376     1.07260
C2029       C  0.66546349  0.40543624  0.76751659     1.07200
C2030       C  0.92380797  0.66162531  0.89933853     1.07170
O2031       O  0.68044641  0.42726405  0.70566410    -0.82450
O2032       O  0.95672212  0.57968313  0.97909697    -0.82470
O2033       O  0.65918304  0.54592355  0.73770074    -0.82480
O2034       O  0.91212277  0.46656042  0.96776765    -0.82420
O2035       O  0.01121081  0.58776021  0.69055920    -0.82540
O2036       O  0.95134788  0.44105847  0.67607839    -0.82460
O2037       O  0.92501647  0.53150557  0.00751883    -0.82450
O2038       O  0.65935646  0.46993588  0.74429955    -0.82480
C2039       C  0.66677187  0.43573001  0.73790566     1.07240
C2040       C  0.92799937  0.56724303  0.99815986     1.07190
C2041       C  0.66421676  0.57977177  0.72496894     1.07270
C2042       C  0.92195096  0.43882773  0.99166283     1.07140
O2043       O  0.67441235  0.40750730  0.97232548    -0.82450
O2044       O  0.72930579  0.54421356  0.97238235    -0.82520
O2045       O  0.73342055  0.46636480  0.70445489    -0.82460
O2046       O  0.94887184  0.53157445  0.92807823    -0.82440
O2047       O  0.00731132  0.53789587  0.92549707    -0.82490
O2048       O  0.72391576  0.46179268  0.64357560    -0.82460
O2049       O  0.98089168  0.45528240  0.93701963    -0.82420
O2050       O  0.73317426  0.54405752  0.70101078    -0.82490
Co2051     Co  0.67112028  0.45570237  0.65705314     1.51530
Co2052     Co  0.00977325  0.55987429  0.97535613     1.51690
Co2053     Co  0.69397617  0.50654899  0.71906401     1.51570
Co2054     Co  0.95467218  0.49393142  0.97625036     1.51470
O2055       O  0.99960764  0.50926667  0.00242010    -1.44380
C2056       C  0.99359495  0.41971827  0.94174108     1.07170
C2057       C  0.74631917  0.55280626  0.66686452     1.07260
C2058       C  0.74313901  0.45319204  0.67210130     1.07200
C2059       C  0.97734578  0.54531852  0.91007966     1.07170
O2060       O  0.91292163  0.34503553  0.70953221    -0.82450
O2061       O  0.75210055  0.61740690  0.99011345    -0.82470
O2062       O  0.78738360  0.36539535  0.74167418    -0.82480
O2063       O  0.87634312  0.59633791  0.97158343    -0.82420
O2064       O  0.76307746  0.64744644  0.72471928    -0.82540
O2065       O  0.89083013  0.61891117  0.69139655    -0.82460
O2066       O  0.80396597  0.58299593  0.98699409    -0.82450
O2067       O  0.85983781  0.34493002  0.74206395    -0.82480
C2068       C  0.89498682  0.33971211  0.74213648     1.07240
C2069       C  0.76943310  0.58558318  0.99315741     1.07130
C2070       C  0.76656764  0.33758969  0.74965332     1.07270
C2071       C  0.89554060  0.59426601  0.00007725     1.07140
O2072       O  0.90008777  0.33517780  0.96205972    -0.82450
O2073       O  0.74947212  0.38724245  0.01880378    -0.82520
O2074       O  0.86646796  0.40506298  0.66407020    -0.82460
O2075       O  0.78781165  0.63890427  0.92400169    -0.82440
O2076       O  0.76060350  0.68954785  0.94891555    -0.82490
O2077       O  0.91511716  0.37212760  0.68037699    -0.82460
O2078       O  0.85995398  0.66076611  0.91985195    -0.82420
O2079       O  0.79923194  0.41506938  0.66742232    -0.82490
Co2080     Co  0.87099853  0.33993852  0.67869313     1.51530
Co2081     Co  0.76320207  0.66831105  0.00353963     1.51690
Co2082     Co  0.82820597  0.37710538  0.70030261     1.51570
Co2083     Co  0.83099050  0.62417202  0.95499821     1.51470
O2084       O  0.82067889  0.33032788  0.99793949    -1.44380
C2085       C  0.89242212  0.66623103  0.92770477     1.07170
C2086       C  0.76521041  0.41707503  0.67350810     1.07260
C2087       C  0.90061565  0.40435448  0.66756905     1.07200
C2088       C  0.76569328  0.66785628  0.92159993     1.07170
O2089       O  0.71843635  0.64388763  0.12386755    -0.82450
O2090       O  0.00626550  0.92692528  0.20381166    -0.82470
O2091       O  0.72867093  0.70506570  0.21108444    -0.82480
O2092       O  0.97956617  0.93739818  0.12048792    -0.82420
O2093       O  0.72633711  0.97621629  0.21395188    -0.82540
O2094       O  0.66673373  0.97607031  0.07142238    -0.82460
O2095       O  0.94799743  0.92621495  0.19762742    -0.82450
O2096       O  0.73126192  0.70349892  0.13151611    -0.82480
C2097       C  0.73953913  0.67146741  0.11683975     1.07240
C2098       C  0.97689088  0.90998392  0.21148110     1.07130
C2099       C  0.74106409  0.67213636  0.22318194     1.07270
C2100       C  0.99119583  0.94338236  0.08436630     1.07140
O2101       O  0.94570234  0.67946503  0.11137226    -0.82450
O2102       O  0.00530017  0.69152371  0.25418203    -0.82520
O2103       O  0.65688603  0.74424351  0.13520342    -0.82460
O2104       O  0.92143346  0.00469878  0.19708845    -0.82440
O2105       O  0.95264719  0.97718611  0.24516121    -0.82490
O2106       O  0.67794813  0.70667387  0.09203585    -0.82460
O2107       O  0.90898869  0.96653056  0.13360574    -0.82420
O2108       O  0.65583762  0.73868227  0.21146832    -0.82490
Co2109     Co  0.66575287  0.65916083  0.12099021     1.51530
Co2110     Co  0.00612751  0.97636822  0.22659342     1.51690
Co2111     Co  0.69098239  0.71977531  0.17198469     1.51570
Co2112     Co  0.95232753  0.97483964  0.15991844     1.51470
O2113       O  0.66356534  0.00271744  0.17543136    -1.44380
C2114       C  0.91610343  0.99494288  0.10933327     1.07170
C2115       C  0.66119418  0.72637087  0.24549379     1.07260
C2116       C  0.66540142  0.73878450  0.10083003     1.07200
C2117       C  0.92379098  0.99493791  0.23266493     1.07170
O2118       O  0.68037607  0.76058452  0.03897341    -0.82450
O2119       O  0.95672699  0.91300903  0.31242865    -0.82470
O2120       O  0.65916920  0.87923338  0.07102744    -0.82480
O2121       O  0.91212683  0.79988808  0.30112199    -0.82420
O2122       O  0.01119873  0.92106527  0.02389185    -0.82540
O2123       O  0.95133140  0.77434450  0.00937253    -0.82460
O2124       O  0.92502291  0.86483668  0.34086654    -0.82450
O2125       O  0.65928797  0.80326606  0.07759755    -0.82480
C2126       C  0.66670152  0.76906123  0.07121201     1.07240
C2127       C  0.92800209  0.90057211  0.33149191     1.07190
C2128       C  0.66423367  0.91307720  0.05830545     1.07270
C2129       C  0.92196256  0.77214774  0.32500444     1.07140
O2130       O  0.67445642  0.74084900  0.30562223    -0.82450
O2131       O  0.72931213  0.87753433  0.30567404    -0.82520
O2132       O  0.73336163  0.79964712  0.03776760    -0.82460
O2133       O  0.94886427  0.86489955  0.26142369    -0.82440
O2134       O  0.00730571  0.87120534  0.25882725    -0.82490
O2135       O  0.72386493  0.79509587  0.97688256    -0.82460
O2136       O  0.98088592  0.78862779  0.27035336    -0.82420
O2137       O  0.73315993  0.87732554  0.03434495    -0.82490
Co2138     Co  0.67106764  0.78902345  0.99036263     1.51530
Co2139     Co  0.00978098  0.89320006  0.30867440     1.51690
Co2140     Co  0.69393808  0.83984547  0.05238262     1.51570
Co2141     Co  0.95467504  0.82726274  0.30959602     1.51470
O2142       O  0.99961867  0.84260159  0.33574785    -1.44380
C2143       C  0.99359832  0.75306790  0.27506357     1.07170
C2144       C  0.74630714  0.88609064  0.00020375     1.07260
C2145       C  0.74308298  0.78648580  0.00541008     1.07200
C2146       C  0.97733855  0.87863158  0.24341541     1.07170
O2147       O  0.91286247  0.67834660  0.04290476    -0.82450
O2148       O  0.75211682  0.95072088  0.32337549    -0.82470
O2149       O  0.78732054  0.69872209  0.07497932    -0.82480
O2150       O  0.87636029  0.92968063  0.30488405    -0.82420
O2151       O  0.76310016  0.98077456  0.05814073    -0.82540
O2152       O  0.89083060  0.95221514  0.02472592    -0.82460
O2153       O  0.80398391  0.91631492  0.32026029    -0.82450
O2154       O  0.85976519  0.67833127  0.07541223    -0.82480
C2155       C  0.89491005  0.67307783  0.07550481     1.07240
C2156       C  0.76945144  0.91890011  0.32642455     1.07130
C2157       C  0.76652952  0.67089276  0.08296887     1.07270
C2158       C  0.89554038  0.92759475  0.33339545     1.07140
O2159       O  0.90008398  0.66851196  0.29543132    -0.82450
O2160       O  0.74947303  0.72058830  0.35210162    -0.82520
O2161       O  0.86643353  0.73837623  0.99737199    -0.82460
O2162       O  0.78781583  0.97226624  0.25730105    -0.82440
O2163       O  0.76059799  0.02288741  0.28224983    -0.82490
O2164       O  0.91506773  0.70543161  0.01372395    -0.82460
O2165       O  0.85994409  0.99413442  0.25317113    -0.82420
O2166       O  0.79916776  0.74836061  0.00066648    -0.82490
Co2167     Co  0.87094890  0.67323987  0.01206098     1.51530
Co2168     Co  0.76320756  0.00160794  0.33685044     1.51690
Co2169     Co  0.82814818  0.71045337  0.03360313     1.51570
Co2170     Co  0.83100010  0.95751002  0.28828721     1.51470
O2171       O  0.82066764  0.66367461  0.33125877    -1.44380
C2172       C  0.89241483  0.99957129  0.26102701     1.07170
C2173       C  0.76515308  0.75037278  0.00681356     1.07260
C2174       C  0.90058055  0.73765572  0.00088638     1.07200
C2175       C  0.76568356  0.00120995  0.25492471     1.07170
O2176       O  0.71845395  0.64389745  0.45721619    -0.82450
O2177       O  0.00628117  0.92693316  0.53710841    -0.82470
O2178       O  0.72862919  0.70508869  0.54442585    -0.82480
O2179       O  0.97957930  0.93743061  0.45379990    -0.82420
O2180       O  0.72638366  0.97614968  0.54723236    -0.82540
O2181       O  0.66655431  0.97612971  0.40468250    -0.82460
O2182       O  0.94801116  0.92624391  0.53093534    -0.82450
O2183       O  0.73125004  0.70351841  0.46486189    -0.82480
C2184       C  0.73954668  0.67148626  0.45019339     1.07240
C2185       C  0.97690171  0.91000281  0.54478313     1.07130
C2186       C  0.74104221  0.67216325  0.55651128     1.07270
C2187       C  0.99115823  0.94342158  0.41766477     1.07140
O2188       O  0.94571798  0.67943974  0.44469311    -0.82450
O2189       O  0.00526447  0.69151677  0.58750034    -0.82520
O2190       O  0.65685501  0.74422663  0.46852431    -0.82460
O2191       O  0.92145325  0.00471848  0.53041667    -0.82440
O2192       O  0.95268307  0.97721457  0.57847975    -0.82490
O2193       O  0.67795110  0.70666840  0.42536192    -0.82460
O2194       O  0.90899806  0.96656798  0.46693032    -0.82420
O2195       O  0.65577432  0.73866096  0.54478022    -0.82490
Co2196     Co  0.66576881  0.65914765  0.45432048     1.51530
Co2197     Co  0.00616799  0.97637445  0.55988831     1.51690
Co2198     Co  0.69094710  0.71977681  0.50531551     1.51570
Co2199     Co  0.95234766  0.97486874  0.49323298     1.51470
O2200       O  0.66360879  0.00271612  0.50872263    -1.44380
C2201       C  0.91608532  0.99500144  0.44267617     1.07170
C2202       C  0.66113345  0.72635675  0.57880546     1.07260
C2203       C  0.66540449  0.73878048  0.43415554     1.07200
C2204       C  0.92380847  0.99493855  0.56599032     1.07170
O2205       O  0.68042369  0.76059836  0.37231424    -0.82450
O2206       O  0.95674721  0.91301183  0.64574925    -0.82470
O2207       O  0.65921156  0.87925100  0.40435694    -0.82480
O2208       O  0.91208979  0.79991000  0.63439834    -0.82420
O2209       O  0.01121789  0.92108991  0.35720900    -0.82540
O2210       O  0.95136376  0.77434339  0.34273138    -0.82460
O2211       O  0.92502603  0.86483854  0.67416166    -0.82450
O2212       O  0.65935411  0.80327903  0.41094901    -0.82480
C2213       C  0.66674649  0.76907200  0.40455199     1.07240
C2214       C  0.92802307  0.90057530  0.66481517     1.07190
C2215       C  0.66423507  0.91309791  0.39161688     1.07270
C2216       C  0.92190920  0.77217629  0.65829731     1.07140
O2217       O  0.67435769  0.74083214  0.63893833    -0.82450
O2218       O  0.72929660  0.87751221  0.63902285    -0.82520
O2219       O  0.73340868  0.79967754  0.37109077    -0.82460
O2220       O  0.94886252  0.86491997  0.59471622    -0.82440
O2221       O  0.00730791  0.87121198  0.59212734    -0.82490
O2222       O  0.72389045  0.79510391  0.31021440    -0.82460
O2223       O  0.98085058  0.78862457  0.60364174    -0.82420
O2224       O  0.73319296  0.87736415  0.36764272    -0.82490
Co2225     Co  0.67109407  0.78903119  0.32370679     1.51530
Co2226     Co  0.00979383  0.89318529  0.64198528     1.51690
Co2227     Co  0.69398520  0.83987102  0.38570870     1.51570
Co2228     Co  0.95465505  0.82726731  0.64287879     1.51470
O2229       O  0.99960337  0.84258525  0.66903937    -1.44380
C2230       C  0.99353027  0.75305524  0.60837009     1.07170
C2231       C  0.74632844  0.88611221  0.33349284     1.07260
C2232       C  0.74311670  0.78650169  0.33873782     1.07200
C2233       C  0.97734187  0.87864894  0.57671503     1.07170
O2234       O  0.91287134  0.67833714  0.37624664    -0.82450
O2235       O  0.75209476  0.95068455  0.65682198    -0.82470
O2236       O  0.78733242  0.69874581  0.40833721    -0.82480
O2237       O  0.87633734  0.92962637  0.63827670    -0.82420
O2238       O  0.76308909  0.98073573  0.39134166    -0.82540
O2239       O  0.89082061  0.95221451  0.35806329    -0.82460
O2240       O  0.80396229  0.91627446  0.65369177    -0.82450
O2241       O  0.85977528  0.67832571  0.40876042    -0.82480
C2242       C  0.89491935  0.67306412  0.40884625     1.07240
C2243       C  0.76942761  0.91885909  0.65983978     1.07130
C2244       C  0.76654793  0.67091216  0.41633242     1.07270
C2245       C  0.89556799  0.92759742  0.66674009     1.07140
O2246       O  0.90007492  0.66851350  0.62875251    -0.82450
O2247       O  0.74942808  0.72054947  0.68545400    -0.82520
O2248       O  0.86645458  0.73838342  0.33073447    -0.82460
O2249       O  0.78781057  0.97215571  0.59068565    -0.82440
O2250       O  0.76060017  0.02280712  0.61558458    -0.82490
O2251       O  0.91508501  0.70542903  0.34707721    -0.82460
O2252       O  0.85995415  0.99402086  0.58651393    -0.82420
O2253       O  0.79919494  0.74836797  0.33401380    -0.82490
Co2254     Co  0.87095701  0.67324541  0.34540706     1.51530
Co2255     Co  0.76319676  0.00159860  0.67022264     1.51690
Co2256     Co  0.82816440  0.71045951  0.36695734     1.51570
Co2257     Co  0.83098739  0.95744523  0.62168717     1.51470
O2258       O  0.82065407  0.66367156  0.66456999    -1.44380
C2259       C  0.89241681  0.99952790  0.59435734     1.07170
C2260       C  0.76518019  0.75038397  0.34015389     1.07260
C2261       C  0.90060136  0.73765912  0.33425101     1.07200
C2262       C  0.76569868  0.00111126  0.58827116     1.07170
O2263       O  0.71839168  0.64386959  0.79047663    -0.82450
O2264       O  0.00628080  0.92691324  0.87046301    -0.82470
O2265       O  0.72868016  0.70505225  0.87771285    -0.82480
O2266       O  0.97960040  0.93739045  0.78712695    -0.82420
O2267       O  0.72631781  0.97621253  0.88065442    -0.82540
O2268       O  0.66682248  0.97603812  0.73810137    -0.82460
O2269       O  0.94801737  0.92619710  0.86426402    -0.82450
O2270       O  0.73124465  0.70347003  0.79815256    -0.82480
C2271       C  0.73951206  0.67143858  0.78347349     1.07240
C2272       C  0.97690756  0.90997029  0.87812618     1.07130
C2273       C  0.74107379  0.67212366  0.88981259     1.07270
C2274       C  0.99124289  0.94337457  0.75100790     1.07140
O2275       O  0.94566686  0.67950479  0.77805951    -0.82450
O2276       O  0.00531655  0.69152389  0.92081924    -0.82520
O2277       O  0.65687440  0.74423768  0.80185485    -0.82460
O2278       O  0.92143130  0.00466755  0.86374408    -0.82440
O2279       O  0.95264436  0.97716594  0.91182008    -0.82490
O2280       O  0.67792039  0.70667055  0.75868183    -0.82460
O2281       O  0.90901821  0.96651159  0.80024344    -0.82420
O2282       O  0.65585015  0.73867902  0.87811193    -0.82490
Co2283     Co  0.66570770  0.65916714  0.78763528     1.51530
Co2284     Co  0.00613334  0.97635095  0.89325378     1.51690
Co2285     Co  0.69098069  0.71976218  0.83862376     1.51570
Co2286     Co  0.95234914  0.97482485  0.82656382     1.51470
O2287       O  0.66356151  0.00271224  0.84210504    -1.44380
C2288       C  0.91613390  0.99492606  0.77597410     1.07170
C2289       C  0.66120663  0.72636688  0.91213684     1.07260
C2290       C  0.66537384  0.73877905  0.76747916     1.07200
C2291       C  0.92378129  0.99490613  0.89932365     1.07170
O2292       O  0.68031941  0.76057096  0.70561862    -0.82450
O2293       O  0.95671570  0.91300087  0.97908887    -0.82470
O2294       O  0.65914771  0.87922193  0.73767812    -0.82480
O2295       O  0.91211499  0.79987700  0.96773734    -0.82420
O2296       O  0.01124735  0.92105643  0.69053099    -0.82540
O2297       O  0.95129707  0.77438022  0.67604074    -0.82460
O2298       O  0.92499963  0.86482228  0.00749670    -0.82450
O2299       O  0.65923909  0.80325704  0.74423999    -0.82480
C2300       C  0.66665359  0.76905146  0.73785837     1.07240
C2301       C  0.92798709  0.90056039  0.99814318     1.07190
C2302       C  0.66424129  0.91306213  0.72496637     1.07270
C2303       C  0.92194029  0.77214320  0.99163290     1.07140
O2304       O  0.67443488  0.74084062  0.97227723    -0.82450
O2305       O  0.72930380  0.87752719  0.97236840    -0.82520
O2306       O  0.73331393  0.79961789  0.70442088    -0.82460
O2307       O  0.94886775  0.86489440  0.92806242    -0.82440
O2308       O  0.00730929  0.87120564  0.92549134    -0.82490
O2309       O  0.72382168  0.79505528  0.64353404    -0.82460
O2310       O  0.98088541  0.78862373  0.93699151    -0.82420
O2311       O  0.73314949  0.87729126  0.70100291    -0.82490
Co2312     Co  0.67101954  0.78901462  0.65701340     1.51530
Co2313     Co  0.00976967  0.89318892  0.97534797     1.51690
Co2314     Co  0.69390586  0.83982504  0.71903366     1.51570
Co2315     Co  0.95466026  0.82725278  0.97622994     1.51470
O2316       O  0.99959168  0.84258814  0.00240523    -1.44380
C2317       C  0.99359220  0.75306267  0.94170578     1.07170
C2318       C  0.74630015  0.88606588  0.66686347     1.07260
C2319       C  0.74303666  0.78645289  0.67206627     1.07200
C2320       C  0.97734740  0.87862691  0.91006685     1.07170
O2321       O  0.91284726  0.67837271  0.70956881    -0.82450
O2322       O  0.75208035  0.95070683  0.99020399    -0.82470
O2323       O  0.78730413  0.69870020  0.74163865    -0.82480
O2324       O  0.87632224  0.92966048  0.97157680    -0.82420
O2325       O  0.76303909  0.98080983  0.72475891    -0.82540
O2326       O  0.89088497  0.95225046  0.69137496    -0.82460
O2327       O  0.80395210  0.91630799  0.98697764    -0.82450
O2328       O  0.85974788  0.67836174  0.74207274    -0.82480
C2329       C  0.89489212  0.67310615  0.74216779     1.07240
C2330       C  0.76942298  0.91888615  0.99317301     1.07130
C2331       C  0.76652791  0.67085705  0.74962790     1.07270
C2332       C  0.89552883  0.92758686  0.00006525     1.07140
O2333       O  0.90008136  0.66849876  0.96208907    -0.82450
O2334       O  0.74944845  0.72057223  0.01874438    -0.82520
O2335       O  0.86640490  0.73839955  0.66403106    -0.82460
O2336       O  0.78777108  0.97225784  0.92404170    -0.82440
O2337       O  0.76051749  0.02285106  0.94901819    -0.82490
O2338       O  0.91504425  0.70546213  0.68038391    -0.82460
O2339       O  0.85992067  0.99410203  0.91985383    -0.82420
O2340       O  0.79912632  0.74834172  0.66730563    -0.82490
Co2341     Co  0.87093746  0.67325498  0.67872361     1.51530
Co2342     Co  0.76318223  0.00160407  0.00362955     1.51690
Co2343     Co  0.82812393  0.71046306  0.70025813     1.51570
Co2344     Co  0.83096374  0.95750139  0.95500268     1.51470
O2345       O  0.82066058  0.66366519  0.99790812    -1.44380
C2346       C  0.89239731  0.99954217  0.92769558     1.07170
C2347       C  0.76511473  0.75034838  0.67348104     1.07260
C2348       C  0.90055206  0.73768440  0.66754730     1.07200
C2349       C  0.76562550  0.00118948  0.92167914     1.07170
loop_ 
_geom_bond_atom_site_label_1 
_geom_bond_atom_site_label_2 
_geom_bond_distance 
_geom_bond_site_symmetry_2 
_ccdc_geom_bond_type 
O1            C9   1.268   1_565  A
O1          Co21   1.972   1_455  S
O2           C10   1.257       .  A
O2          Co22   1.966       .  S
O3           C11   1.265       .  A
O3          Co23   2.023       .  S
O4           C12   1.304       .  A
O4          Co24   2.134       .  S
O5          C272   1.261       .  A
O5        Co1588   1.971       .  S
O6         C1578   1.248   1_455  A
O6         Co282   1.865   1_455  S
O7           C10   1.275       .  A
O7          Co24   2.070       .  S
O8            C9   1.284       .  A
O8          Co23   2.052       .  S
C9           C69   1.482       .  S
C10          C58   1.498       .  S
C11         O527   1.261   1_545  A
C11         C609   1.470       .  S
C12         O789   1.248       .  A
C12         C823   1.453       .  S
O13         C548   1.289   1_545  A
O13        Co804   2.075   1_545  S
O14         C810   1.279       .  A
O14        Co544   2.019   1_545  S
O15          C28   1.244       .  A
O15         Co23   1.963   1_655  S
O16          C29   1.267       .  A
O16         Co24   1.981       .  S
O17          C29   1.277       .  A
O17         Co22   2.010       .  S
O18          C28   1.244   1_455  A
O18         Co21   1.932   1_445  S
O19          C26   1.278       .  A
O19         Co24   1.934       .  S
O20          C27   1.254       .  A
O20         Co23   1.943   1_655  S
Co21        O528   1.865   1_655  S
Co21       O1579   2.075   1_565  S
Co21        O547   1.958   1_565  S
Co22        O788   1.971       .  S
Co22        O275   2.020       .  S
Co22        O808   1.982       .  S
Co23        O547   2.070   1_455  S
Co24        O808   2.074       .  S
O25        Co282   1.958       .  S
O25       Co1588   1.982   1_655  S
O25        Co284   2.070   1_655  S
O25       Co1590   2.074       .  S
C26         O274   1.289       .  A
C26         C328   1.474       .  S
C27        O1580   1.279   1_655  A
C27        C1621   1.447       .  S
C28          C38   1.418       .  S
C29          C84   1.468       .  S
O30          C38   1.248   1_455  A
O30         Co50   1.935   1_554  S
O31          C39   1.278       .  A
O31         Co51   2.017       .  S
O32          C40   1.251       .  A
O32         Co52   1.940   1_655  S
O33          C41   1.279       .  A
O33         Co53   1.927       .  S
O34         C823   1.281       .  A
O34        Co225   2.031   1_554  S
O35         C215   1.287   1_554  A
O35        Co833   2.080   1_554  S
O36          C39   1.277       .  A
O36         Co53   1.999       .  S
O37          C38   1.248       .  A
O37         Co52   1.964   1_655  S
C39          C70   1.473       .  S
C40        O1600   1.281   1_655  A
C40        C1578   1.453       .  S
C41         O122   1.287       .  A
C41         C173   1.477       .  S
O42        C1621   1.252   1_455  A
O42        Co137   1.847       .  S
O43         C143   1.256       .  A
O43       Co1617   1.972       .  S
O44          C57   1.274       .  A
O44         Co52   2.022       .  S
O45          C58   1.272       .  A
O45         Co53   2.063       .  S
O46          C58   1.258       .  A
O46         Co51   1.971       .  S
O47          C57   1.265   1_556  A
O47         Co50   1.969       .  S
O48          C55   1.305       .  A
O48         Co53   2.142       .  S
O49          C56   1.271       .  A
O49         Co52   2.031       .  S
Co50       O1601   2.080   1_456  S
Co50        O216   1.847       .  S
Co50       O1794   1.954   1_456  S
Co51        O121   2.031       .  S
Co51        O826   1.972       .  S
Co51         O54   1.980       .  S
Co52       O1794   2.071   1_455  S
Co53         O54   2.054       .  S
O54        Co920   1.954       .  S
O54        Co922   2.071       .  S
C55         O825   1.252       .  A
C55         C810   1.447       .  S
C56         O217   1.256   1_554  A
C56         C242   1.460   1_554  S
C57          C85   1.459       .  S
O59          C67   1.275       .  A
O59         Co79   1.959       .  S
O60          C68   1.250       .  A
O60         Co80   1.955       .  S
O61          C69   1.271       .  A
O61         Co81   2.032       .  S
O62          C70   1.253       .  A
O62         Co82   1.970       .  S
O63         C330   1.262       .  A
O63        Co254   1.979       .  S
O64         C244   1.265       .  A
O64        Co340   2.023       .  S
O65          C68   1.262       .  A
O65         Co82   2.009       .  S
O66          C67   1.285       .  A
O66         Co81   2.132       .  S
C67         C548   1.474   1_545  S
C68         C143   1.460       .  S
C69         O585   1.262   1_545  A
C70         O151   1.265       .  A
O71         C606   1.262   1_545  A
O71        Co166   1.988       .  S
O72         C172   1.247       .  A
O72        Co602   1.976       .  S
O73          C86   1.260   1_556  A
O73         Co81   2.050   1_556  S
O74          C87   1.260       .  A
O74         Co82   1.995       .  S
O75          C87   1.265       .  A
O75         Co80   1.993       .  S
O76          C86   1.279       .  A
O76         Co79   2.027       .  S
O77          C84   1.265       .  A
O77         Co82   1.993       .  S
O78          C85   1.243       .  A
O78         Co81   1.990       .  S
Co79        O586   2.023   1_545  S
Co79        O245   1.988   1_554  S
Co79        O257   1.990   1_544  S
Co80        O150   1.979       .  S
Co80        O333   1.976       .  S
Co80        O344   2.090       .  S
Co81        O257   2.182   1_544  S
Co82        O344   2.122       .  S
O83        Co166   1.990   1_565  S
O83        Co602   2.090   1_565  S
O83        Co168   2.182   1_565  S
O83        Co604   2.122       .  S
C84         O332   1.262       .  A
C85         O246   1.247       .  A
C86         C215   1.477   1_554  S
C87         C272   1.470       .  S
O88          C96   1.268   1_565  A
O88        Co108   1.973   1_455  S
O89          C97   1.257       .  A
O89        Co109   1.966       .  S
O90          C98   1.265       .  A
O90        Co110   2.023       .  S
O91          C99   1.304       .  A
O91        Co111   2.134       .  S
O92         C359   1.261       .  A
O92       Co1675   1.971       .  S
O93        C1665   1.248   1_455  A
O93        Co369   1.866   1_455  S
O94          C97   1.275       .  A
O94        Co111   2.070       .  S
O95          C96   1.284       .  A
O95        Co110   2.052       .  S
C96         C156   1.482       .  S
C97         C145   1.498       .  S
C98         O614   1.261   1_545  A
C98         C696   1.471       .  S
C99         O876   1.248       .  A
C99         C910   1.453       .  S
O100        C635   1.289   1_545  A
O100       Co891   2.075   1_545  S
O101        C897   1.279       .  A
O101       Co631   2.020   1_545  S
O102        C115   1.244       .  A
O102       Co110   1.963   1_655  S
O103        C116   1.267       .  A
O103       Co111   1.981       .  S
O104        C116   1.277       .  A
O104       Co109   2.010       .  S
O105        C115   1.244   1_455  A
O105       Co108   1.931   1_445  S
O106        C113   1.278       .  A
O106       Co111   1.935       .  S
O107        C114   1.254       .  A
O107       Co110   1.943   1_655  S
Co108       O615   1.866       .  S
Co108      O1666   2.075   1_565  S
Co108       O634   1.958   1_565  S
Co109       O875   1.971       .  S
Co109       O362   2.020       .  S
Co109       O895   1.982       .  S
Co110       O634   2.070   1_455  S
Co111       O895   2.074       .  S
O112       Co369   1.958       .  S
O112      Co1675   1.982   1_655  S
O112       Co371   2.070   1_655  S
O112      Co1677   2.074       .  S
C113        O361   1.289       .  A
C113        C415   1.474       .  S
C114       O1667   1.279   1_655  A
C114       C1708   1.447       .  S
C115        C125   1.418   1_655  S
C116        C171   1.468       .  S
O117        C125   1.248       .  A
O117       Co137   1.935       .  S
O118        C126   1.278       .  A
O118       Co138   2.016       .  S
O119        C127   1.251       .  A
O119       Co139   1.940   1_655  S
O120        C128   1.279       .  A
O120       Co140   1.927       .  S
O121        C910   1.281       .  A
O122       Co920   2.080       .  S
O123        C126   1.277       .  A
O123       Co140   1.999       .  S
O124        C125   1.248   1_655  A
O124       Co139   1.964   1_655  S
C126        C157   1.473       .  S
C127       O1687   1.281   1_655  A
C127       C1665   1.453       .  S
C128        O209   1.287       .  A
C128        C260   1.477       .  S
O129       C1708   1.252   1_455  A
O129       Co224   1.847       .  S
O130        C230   1.256       .  A
O130      Co1704   1.972       .  S
O131        C144   1.274       .  A
O131       Co139   2.022       .  S
O132        C145   1.272       .  A
O132       Co140   2.063       .  S
O133        C145   1.258       .  A
O133       Co138   1.971       .  S
O134        C144   1.265       .  A
O134       Co137   1.969       .  S
O135        C142   1.306       .  A
O135       Co140   2.142       .  S
O136        C143   1.271       .  A
O136       Co139   2.030       .  S
Co137      O1688   2.080   1_455  S
Co137      O1620   1.954   1_455  S
Co138       O208   2.031       .  S
Co138       O913   1.972       .  S
Co138       O141   1.980       .  S
Co139      O1620   2.071   1_455  S
Co140       O141   2.054       .  S
O141      Co1007   1.954       .  S
O141      Co1009   2.071       .  S
C142        O912   1.252       .  A
C142        C897   1.447       .  S
C144        C172   1.459       .  S
O146        C154   1.275       .  A
O146       Co166   1.959       .  S
O147        C155   1.250       .  A
O147       Co167   1.956       .  S
O148        C156   1.271       .  A
O148       Co168   2.032       .  S
O149        C157   1.252       .  A
O149       Co169   1.970       .  S
O150        C417   1.262       .  A
O151       Co427   2.023       .  S
O152        C155   1.262       .  A
O152       Co169   2.009       .  S
O153        C154   1.285       .  A
O153       Co168   2.132       .  S
C154        C635   1.474   1_545  S
C155        C230   1.460       .  S
C156        O672   1.262   1_545  A
C157        O238   1.265       .  A
O158        C693   1.262   1_545  A
O158       Co253   1.988       .  S
O159        C259   1.247       .  A
O159       Co689   1.976       .  S
O160        C173   1.260       .  A
O160       Co168   2.050       .  S
O161        C174   1.260       .  A
O161       Co169   1.995       .  S
O162        C174   1.265       .  A
O162       Co167   1.994       .  S
O163        C173   1.279       .  A
O163       Co166   2.027       .  S
O164        C171   1.265       .  A
O164       Co169   1.993       .  S
O165        C172   1.243       .  A
O165       Co168   1.990       .  S
Co166       O673   2.023   1_545  S
Co167       O237   1.979       .  S
Co167       O420   1.976       .  S
Co167       O431   2.090       .  S
Co169       O431   2.123       .  S
O170       Co253   1.990   1_565  S
O170       Co689   2.090   1_565  S
O170       Co255   2.183   1_565  S
O170       Co691   2.123       .  S
C171        O419   1.262       .  A
C174        C359   1.470       .  S
O175        C183   1.268   1_565  A
O175       Co195   1.973   1_455  S
O176        C184   1.257       .  A
O176       Co196   1.966       .  S
O177        C185   1.265       .  A
O177       Co197   2.023       .  S
O178        C186   1.304       .  A
O178       Co198   2.134       .  S
O179        C446   1.261       .  A
O179      Co1762   1.971       .  S
O180       C1752   1.248   1_455  A
O180       Co456   1.865   1_455  S
O181        C184   1.275       .  A
O181       Co198   2.070       .  S
O182        C183   1.284       .  A
O182       Co197   2.052       .  S
C183        C243   1.483       .  S
C184        C232   1.498       .  S
C185        O701   1.261   1_545  A
C185        C783   1.471       .  S
C186        O963   1.248       .  A
C186        C997   1.453       .  S
O187        C722   1.289   1_545  A
O187       Co978   2.075   1_545  S
O188        C984   1.279       .  A
O188       Co718   2.019   1_545  S
O189        C202   1.244       .  A
O189       Co197   1.963   1_655  S
O190        C203   1.267       .  A
O190       Co198   1.981       .  S
O191        C203   1.277       .  A
O191       Co196   2.010       .  S
O192        C202   1.244   1_455  A
O192       Co195   1.932   1_445  S
O193        C200   1.278       .  A
O193       Co198   1.934       .  S
O194        C201   1.254       .  A
O194       Co197   1.943   1_655  S
Co195       O702   1.865   1_655  S
Co195      O1753   2.075   1_565  S
Co195       O721   1.958   1_565  S
Co196       O962   1.971       .  S
Co196       O449   2.020       .  S
Co196       O982   1.982       .  S
Co197       O721   2.070   1_455  S
Co198       O982   2.074       .  S
O199       Co456   1.958       .  S
O199      Co1762   1.982   1_655  S
O199       Co458   2.071   1_655  S
O199      Co1764   2.074       .  S
C200        O448   1.289       .  A
C200        C502   1.474       .  S
C201       O1754   1.279   1_655  A
C201       C1795   1.447       .  S
C202        C212   1.418   1_655  S
C203        C258   1.468       .  S
O204        C212   1.248       .  A
O204       Co224   1.935       .  S
O205        C213   1.278       .  A
O205       Co225   2.017       .  S
O206        C214   1.251       .  A
O206       Co226   1.940   1_655  S
O207        C215   1.279       .  A
O207       Co227   1.927       .  S
O208        C997   1.281       .  A
O209      Co1007   2.080       .  S
O210        C213   1.277   1_554  A
O210       Co227   1.999   1_554  S
O211        C212   1.248   1_655  A
O211       Co226   1.964   1_655  S
C213        C244   1.473   1_556  S
C214       O1774   1.281   1_655  A
C214       C1752   1.453       .  S
O216       C1795   1.252   1_455  A
O217      Co1791   1.972       .  S
O218        C231   1.274       .  A
O218       Co226   2.022       .  S
O219        C232   1.272       .  A
O219       Co227   2.063       .  S
O220        C232   1.258       .  A
O220       Co225   1.971       .  S
O221        C231   1.265       .  A
O221       Co224   1.969       .  S
O222        C229   1.305       .  A
O222       Co227   2.142       .  S
O223        C230   1.271       .  A
O223       Co226   2.031       .  S
Co224      O1775   2.080   1_455  S
Co224      O1707   1.954   1_455  S
Co225      O1000   1.972       .  S
Co225       O228   1.980   1_556  S
Co226      O1707   2.071   1_455  S
Co227       O228   2.054   1_556  S
O228       Co833   1.954   1_554  S
O228       Co835   2.071       .  S
C229        O999   1.252       .  A
C229        C984   1.447       .  S
C231        C259   1.459       .  S
O233        C241   1.275       .  A
O233       Co253   1.959       .  S
O234        C242   1.250       .  A
O234       Co254   1.955   1_556  S
O235        C243   1.271       .  A
O235       Co255   2.032       .  S
O236        C244   1.252   1_556  A
O236       Co256   1.970       .  S
O237        C504   1.262       .  A
O238       Co514   2.023       .  S
O239        C242   1.262       .  A
O239       Co256   2.009       .  S
O240        C241   1.285       .  A
O240       Co255   2.132       .  S
C241        C722   1.474   1_545  S
C243        O759   1.262   1_545  A
O245        C780   1.262   1_545  A
O246       Co776   1.976       .  S
O247        C260   1.260       .  A
O247       Co255   2.050       .  S
O248        C261   1.260       .  A
O248       Co256   1.995       .  S
O249        C261   1.265       .  A
O249       Co254   1.994   1_556  S
O250        C260   1.279       .  A
O250       Co253   2.027       .  S
O251        C258   1.265       .  A
O251       Co256   1.993       .  S
O252        C259   1.243       .  A
O252       Co255   1.990       .  S
Co253       O760   2.023   1_545  S
Co254       O507   1.976       .  S
Co254       O518   2.090   1_554  S
Co256       O518   2.123       .  S
O257       Co776   2.090   1_566  S
O257       Co778   2.122       .  S
C258        O506   1.262       .  A
C261        C446   1.470       .  S
O262        C270   1.268       .  A
O262       Co282   1.972   1_455  S
O263        C271   1.257       .  A
O263       Co283   1.966       .  S
O264        C272   1.265       .  A
O264       Co284   2.023       .  S
O265        C273   1.304       .  A
O265       Co285   2.134       .  S
O266        C533   1.261       .  A
O266      Co1849   1.971       .  S
O267       C1839   1.248   1_455  A
O267       Co543   1.865   1_455  S
O268        C271   1.276       .  A
O268       Co285   2.070       .  S
O269        C270   1.284       .  A
O269       Co284   2.052       .  S
C270        C330   1.482       .  S
C271        C319   1.498       .  S
C273       O1050   1.248       .  A
C273       C1084   1.453       .  S
O274      Co1065   2.075       .  S
O275       C1071   1.279       .  A
O276        C289   1.244       .  A
O276       Co284   1.963   1_655  S
O277        C290   1.267       .  A
O277       Co285   1.981       .  S
O278        C290   1.277       .  A
O278       Co283   2.010       .  S
O279        C289   1.244   1_455  A
O279       Co282   1.932   1_455  S
O280        C287   1.278       .  A
O280       Co285   1.935       .  S
O281        C288   1.254       .  A
O281       Co284   1.943   1_655  S
Co282      O1840   2.075       .  S
Co283      O1049   1.971       .  S
Co283       O536   2.020       .  S
Co283      O1069   1.982       .  S
Co285      O1069   2.074       .  S
O286       Co543   1.958       .  S
O286      Co1849   1.982   1_655  S
O286       Co545   2.070   1_655  S
O286      Co1851   2.074       .  S
C287        O535   1.289       .  A
C287        C589   1.474       .  S
C288       O1841   1.279   1_655  A
C288       C1882   1.448       .  S
C289        C299   1.418   1_655  S
C290        C345   1.468       .  S
O291        C299   1.248       .  A
O291       Co311   1.935   1_554  S
O292        C300   1.278       .  A
O292       Co312   2.017       .  S
O293        C301   1.251       .  A
O293       Co313   1.940   1_655  S
O294        C302   1.279       .  A
O294       Co314   1.927       .  S
O295       C1084   1.281       .  A
O295       Co486   2.031   1_554  S
O296        C476   1.287   1_554  A
O296      Co1094   2.080   1_554  S
O297        C300   1.277       .  A
O297       Co314   1.999       .  S
O298        C299   1.248   1_655  A
O298       Co313   1.964   1_655  S
C300        C331   1.474       .  S
C301       O1861   1.281   1_655  A
C301       C1839   1.453       .  S
C302        O383   1.287       .  A
C302        C434   1.477       .  S
O303       C1882   1.252   1_455  A
O303       Co398   1.847       .  S
O304        C404   1.256       .  A
O304      Co1878   1.972       .  S
O305        C318   1.274       .  A
O305       Co313   2.022       .  S
O306        C319   1.272       .  A
O306       Co314   2.063       .  S
O307        C319   1.258       .  A
O307       Co312   1.971       .  S
O308        C318   1.265   1_556  A
O308       Co311   1.969       .  S
O309        C316   1.306       .  A
O309       Co314   2.143       .  S
O310        C317   1.271       .  A
O310       Co313   2.031       .  S
Co311      O1862   2.080   1_456  S
Co311       O477   1.847       .  S
Co311      O2055   1.954   1_456  S
Co312       O382   2.031       .  S
Co312      O1087   1.972       .  S
Co312       O315   1.980       .  S
Co313      O2055   2.071   1_455  S
Co314       O315   2.054       .  S
O315      Co1181   1.954       .  S
O315      Co1183   2.071       .  S
C316       O1086   1.252       .  A
C316       C1071   1.448       .  S
C317        O478   1.256   1_554  A
C317        C503   1.460   1_554  S
C318        C346   1.459       .  S
O320        C328   1.275       .  A
O320       Co340   1.959       .  S
O321        C329   1.250       .  A
O321       Co341   1.955       .  S
O322        C330   1.271       .  A
O322       Co342   2.032       .  S
O323        C331   1.253       .  A
O323       Co343   1.970       .  S
O324        C591   1.262       .  A
O324       Co515   1.979       .  S
O325        C505   1.265       .  A
O325       Co601   2.023       .  S
O326        C329   1.262       .  A
O326       Co343   2.009       .  S
O327        C328   1.285       .  A
O327       Co342   2.132       .  S
C329        C404   1.460       .  S
C331        O412   1.265       .  A
O332       Co427   1.988       .  S
O333        C433   1.247       .  A
O334        C347   1.260   1_556  A
O334       Co342   2.050   1_556  S
O335        C348   1.260       .  A
O335       Co343   1.995       .  S
O336        C348   1.265       .  A
O336       Co341   1.994       .  S
O337        C347   1.279       .  A
O337       Co340   2.027       .  S
O338        C345   1.265       .  A
O338       Co343   1.993       .  S
O339        C346   1.243       .  A
O339       Co342   1.990       .  S
Co340       O506   1.988   1_554  S
Co340       O518   1.990   1_554  S
Co341       O411   1.979       .  S
Co341       O594   1.976       .  S
Co341       O605   2.090       .  S
Co342       O518   2.183   1_554  S
Co343       O605   2.123       .  S
O344       Co427   1.990       .  S
O344       Co429   2.182       .  S
C345        O593   1.262       .  A
C346        O507   1.247       .  A
C347        C476   1.477   1_554  S
C348        C533   1.471       .  S
O349        C357   1.268       .  A
O349       Co369   1.973   1_455  S
O350        C358   1.257       .  A
O350       Co370   1.966       .  S
O351        C359   1.265       .  A
O351       Co371   2.023       .  S
O352        C360   1.304       .  A
O352       Co372   2.134       .  S
O353        C620   1.261       .  A
O353      Co1936   1.971       .  S
O354       C1926   1.248   1_455  A
O354       Co630   1.865   1_455  S
O355        C358   1.276       .  A
O355       Co372   2.070       .  S
O356        C357   1.284       .  A
O356       Co371   2.052       .  S
C357        C417   1.482       .  S
C358        C406   1.498       .  S
C360       O1137   1.248       .  A
C360       C1171   1.453       .  S
O361      Co1152   2.075       .  S
O362       C1158   1.279       .  A
O363        C376   1.244       .  A
O363       Co371   1.963   1_655  S
O364        C377   1.267       .  A
O364       Co372   1.981       .  S
O365        C377   1.277       .  A
O365       Co370   2.010       .  S
O366        C376   1.244   1_455  A
O366       Co369   1.932   1_455  S
O367        C374   1.278       .  A
O367       Co372   1.935       .  S
O368        C375   1.254       .  A
O368       Co371   1.943   1_655  S
Co369      O1927   2.075       .  S
Co370      O1136   1.971       .  S
Co370       O623   2.019       .  S
Co370      O1156   1.982       .  S
Co372      O1156   2.074       .  S
O373       Co630   1.958       .  S
O373      Co1936   1.982   1_655  S
O373       Co632   2.070   1_655  S
O373      Co1938   2.074       .  S
C374        O622   1.289       .  A
C374        C676   1.474       .  S
C375       O1928   1.279   1_655  A
C375       C1969   1.448       .  S
C376        C386   1.418   1_655  S
C377        C432   1.468       .  S
O378        C386   1.248       .  A
O378       Co398   1.935       .  S
O379        C387   1.278       .  A
O379       Co399   2.017       .  S
O380        C388   1.251       .  A
O380       Co400   1.940   1_655  S
O381        C389   1.279       .  A
O381       Co401   1.926       .  S
O382       C1171   1.281       .  A
O383      Co1181   2.080       .  S
O384        C387   1.277       .  A
O384       Co401   1.999       .  S
O385        C386   1.248   1_655  A
O385       Co400   1.964   1_655  S
C387        C418   1.474       .  S
C388       O1948   1.281   1_655  A
C388       C1926   1.453       .  S
C389        O470   1.287       .  A
C389        C521   1.477       .  S
O390       C1969   1.252   1_455  A
O390       Co485   1.847       .  S
O391        C491   1.256       .  A
O391      Co1965   1.972       .  S
O392        C405   1.274       .  A
O392       Co400   2.022       .  S
O393        C406   1.272       .  A
O393       Co401   2.063       .  S
O394        C406   1.258       .  A
O394       Co399   1.971       .  S
O395        C405   1.265       .  A
O395       Co398   1.969       .  S
O396        C403   1.306       .  A
O396       Co401   2.143       .  S
O397        C404   1.271       .  A
O397       Co400   2.030       .  S
Co398      O1949   2.080   1_455  S
Co398      O1881   1.954   1_455  S
Co399       O469   2.031       .  S
Co399      O1174   1.972       .  S
Co399       O402   1.980       .  S
Co400      O1881   2.071   1_455  S
Co401       O402   2.054       .  S
O402      Co1268   1.954       .  S
O402      Co1270   2.071       .  S
C403       O1173   1.252       .  A
C403       C1158   1.448       .  S
C405        C433   1.459       .  S
O407        C415   1.275       .  A
O407       Co427   1.959       .  S
O408        C416   1.250       .  A
O408       Co428   1.955       .  S
O409        C417   1.271       .  A
O409       Co429   2.032       .  S
O410        C418   1.253       .  A
O410       Co430   1.970       .  S
O411        C678   1.262       .  A
O412       Co688   2.023       .  S
O413        C416   1.262       .  A
O413       Co430   2.009       .  S
O414        C415   1.285       .  A
O414       Co429   2.132       .  S
C416        C491   1.460       .  S
C418        O499   1.265       .  A
O419       Co514   1.988       .  S
O420        C520   1.247       .  A
O421        C434   1.260       .  A
O421       Co429   2.050       .  S
O422        C435   1.260       .  A
O422       Co430   1.995       .  S
O423        C435   1.265       .  A
O423       Co428   1.993       .  S
O424        C434   1.279       .  A
O424       Co427   2.027       .  S
O425        C432   1.265       .  A
O425       Co430   1.993       .  S
O426        C433   1.243       .  A
O426       Co429   1.990       .  S
Co428       O498   1.979       .  S
Co428       O681   1.976       .  S
Co428       O692   2.090       .  S
Co430       O692   2.122       .  S
O431       Co514   1.990       .  S
O431       Co516   2.183       .  S
C432        O680   1.262       .  A
C435        C620   1.470       .  S
O436        C444   1.268       .  A
O436       Co456   1.972   1_455  S
O437        C445   1.257       .  A
O437       Co457   1.966       .  S
O438        C446   1.265       .  A
O438       Co458   2.023       .  S
O439        C447   1.304       .  A
O439       Co459   2.134       .  S
O440        C707   1.261       .  A
O440      Co2023   1.971       .  S
O441       C2013   1.248       .  A
O441       Co717   1.866       .  S
O442        C445   1.276       .  A
O442       Co459   2.070       .  S
O443        C444   1.284       .  A
O443       Co458   2.052       .  S
C444        C504   1.482       .  S
C445        C493   1.498       .  S
C447       O1224   1.248       .  A
C447       C1258   1.453       .  S
O448      Co1239   2.075       .  S
O449       C1245   1.279       .  A
O450        C463   1.244       .  A
O450       Co458   1.963   1_655  S
O451        C464   1.267       .  A
O451       Co459   1.981       .  S
O452        C464   1.277       .  A
O452       Co457   2.010       .  S
O453        C463   1.244   1_455  A
O453       Co456   1.932   1_455  S
O454        C461   1.278       .  A
O454       Co459   1.935       .  S
O455        C462   1.254       .  A
O455       Co458   1.943   1_655  S
Co456      O2014   2.075       .  S
Co457      O1223   1.971       .  S
Co457       O710   2.020       .  S
Co457      O1243   1.982       .  S
Co459      O1243   2.074       .  S
O460       Co717   1.958       .  S
O460      Co2023   1.982   1_655  S
O460       Co719   2.070   1_655  S
O460      Co2025   2.074       .  S
C461        O709   1.289       .  A
C461        C763   1.474       .  S
C462       O2015   1.279   1_655  A
C462       C2056   1.448       .  S
C463        C473   1.418   1_655  S
C464        C519   1.468       .  S
O465        C473   1.248       .  A
O465       Co485   1.935       .  S
O466        C474   1.278       .  A
O466       Co486   2.017       .  S
O467        C475   1.251       .  A
O467       Co487   1.940   1_655  S
O468        C476   1.279       .  A
O468       Co488   1.927       .  S
O469       C1258   1.281       .  A
O470      Co1268   2.080       .  S
O471        C474   1.277   1_554  A
O471       Co488   1.999   1_554  S
O472        C473   1.248   1_655  A
O472       Co487   1.964   1_655  S
C474        C505   1.473   1_556  S
C475       O2035   1.281   1_655  A
C475       C2013   1.453       .  S
O477       C2056   1.252   1_455  A
O478      Co2052   1.972       .  S
O479        C492   1.274       .  A
O479       Co487   2.022       .  S
O480        C493   1.272       .  A
O480       Co488   2.063       .  S
O481        C493   1.258       .  A
O481       Co486   1.971       .  S
O482        C492   1.265       .  A
O482       Co485   1.969       .  S
O483        C490   1.306       .  A
O483       Co488   2.143       .  S
O484        C491   1.271       .  A
O484       Co487   2.030       .  S
Co485      O2036   2.080   1_455  S
Co485      O1968   1.954   1_455  S
Co486      O1261   1.972       .  S
Co486       O489   1.980   1_556  S
Co487      O1968   2.071   1_455  S
Co488       O489   2.054   1_556  S
O489      Co1094   1.954   1_554  S
O489      Co1096   2.071       .  S
C490       O1260   1.252       .  A
C490       C1245   1.448       .  S
C492        C520   1.459       .  S
O494        C502   1.275       .  A
O494       Co514   1.959       .  S
O495        C503   1.250       .  A
O495       Co515   1.955   1_556  S
O496        C504   1.271       .  A
O496       Co516   2.032       .  S
O497        C505   1.253   1_556  A
O497       Co517   1.970       .  S
O498        C765   1.262       .  A
O499       Co775   2.023       .  S
O500        C503   1.262       .  A
O500       Co517   2.009       .  S
O501        C502   1.285       .  A
O501       Co516   2.132       .  S
O508        C521   1.260       .  A
O508       Co516   2.050       .  S
O509        C522   1.260       .  A
O509       Co517   1.995       .  S
O510        C522   1.265       .  A
O510       Co515   1.994   1_556  S
O511        C521   1.279       .  A
O511       Co514   2.027       .  S
O512        C519   1.265       .  A
O512       Co517   1.993       .  S
O513        C520   1.243       .  A
O513       Co516   1.990       .  S
Co515       O768   1.976       .  S
Co515       O779   2.090   1_554  S
Co517       O779   2.122       .  S
C519        O767   1.262       .  A
C522        C707   1.471       .  S
O523        C531   1.268       .  A
O523       Co543   1.973   1_455  S
O524        C532   1.257       .  A
O524       Co544   1.966       .  S
O525        C533   1.265       .  A
O525       Co545   2.023       .  S
O526        C534   1.304       .  A
O526       Co546   2.134       .  S
O527      Co2110   1.971       .  S
O528       C2100   1.248   1_455  A
O529        C532   1.276       .  A
O529       Co546   2.070       .  S
O530        C531   1.284       .  A
O530       Co545   2.052       .  S
C531        C591   1.482       .  S
C532        C580   1.498       .  S
C534       O1311   1.248       .  A
C534       C1345   1.453       .  S
O535      Co1326   2.075       .  S
O536       C1332   1.279       .  A
O537        C550   1.244       .  A
O537       Co545   1.963   1_655  S
O538        C551   1.267   1_545  A
O538       Co546   1.981   1_545  S
O539        C551   1.277       .  A
O539       Co544   2.010       .  S
O540        C550   1.244   1_455  A
O540       Co543   1.932   1_455  S
O541        C548   1.278       .  A
O541       Co546   1.935       .  S
O542        C549   1.254       .  A
O542       Co545   1.943   1_655  S
Co543      O2101   2.075       .  S
Co544      O1310   1.971       .  S
Co544      O1330   1.982   1_565  S
Co546      O1330   2.074   1_565  S
O547      Co2110   1.982   1_645  S
O547      Co2112   2.074   1_545  S
C549       O2102   1.279   1_655  A
C549       C2143   1.448       .  S
C550        C560   1.418   1_655  S
C551        C606   1.468       .  S
O552        C560   1.249       .  A
O552       Co572   1.935   1_554  S
O553        C561   1.278       .  A
O553       Co573   2.017       .  S
O554        C562   1.251       .  A
O554       Co574   1.940   1_655  S
O555        C563   1.279       .  A
O555       Co575   1.927       .  S
O556       C1345   1.281       .  A
O556       Co747   2.031   1_554  S
O557        C737   1.287   1_554  A
O557      Co1355   2.080   1_554  S
O558        C561   1.277       .  A
O558       Co575   1.999       .  S
O559        C560   1.248   1_655  A
O559       Co574   1.964   1_655  S
C561        C592   1.474       .  S
C562       O2122   1.281   1_655  A
C562       C2100   1.453       .  S
C563        O644   1.287       .  A
C563        C695   1.477       .  S
O564       C2143   1.252   1_455  A
O564       Co659   1.847       .  S
O565        C665   1.256       .  A
O565      Co2139   1.972       .  S
O566        C579   1.274       .  A
O566       Co574   2.022       .  S
O567        C580   1.272       .  A
O567       Co575   2.063       .  S
O568        C580   1.258       .  A
O568       Co573   1.971       .  S
O569        C579   1.265   1_556  A
O569       Co572   1.969       .  S
O570        C577   1.305       .  A
O570       Co575   2.143       .  S
O571        C578   1.271       .  A
O571       Co574   2.030       .  S
Co572      O2123   2.080   1_456  S
Co572       O738   1.847       .  S
Co572      O2316   1.954   1_456  S
Co573       O643   2.031       .  S
Co573      O1348   1.972       .  S
Co573       O576   1.980       .  S
Co574      O2316   2.071   1_455  S
Co575       O576   2.054       .  S
O576      Co1442   1.954       .  S
O576      Co1444   2.071       .  S
C577       O1347   1.252       .  A
C577       C1332   1.447       .  S
C578        O739   1.256   1_554  A
C578        C764   1.460   1_554  S
C579        C607   1.459       .  S
O581        C589   1.275       .  A
O581       Co601   1.959       .  S
O582        C590   1.250       .  A
O582       Co602   1.955   1_565  S
O583        C591   1.271       .  A
O583       Co603   2.032       .  S
O584        C592   1.253       .  A
O584       Co604   1.970       .  S
O585       Co776   1.979   1_565  S
O586        C766   1.265       .  A
O587        C590   1.262       .  A
O587       Co604   2.009       .  S
O588        C589   1.285       .  A
O588       Co603   2.132       .  S
C590        C665   1.460       .  S
C592        O673   1.265       .  A
O593       Co688   1.988       .  S
O594        C694   1.247       .  A
O595        C608   1.260   1_556  A
O595       Co603   2.050   1_556  S
O596        C609   1.260   1_565  A
O596       Co604   1.995       .  S
O597        C609   1.265       .  A
O597       Co602   1.993       .  S
O598        C608   1.279       .  A
O598       Co601   2.027       .  S
O599        C606   1.265       .  A
O599       Co604   1.993       .  S
O600        C607   1.243       .  A
O600       Co603   1.990       .  S
Co601       O767   1.988   1_554  S
Co601       O779   1.990   1_554  S
Co602       O672   1.979   1_545  S
Co603       O779   2.183   1_554  S
O605       Co688   1.990       .  S
O605       Co690   2.183       .  S
C607        O768   1.247       .  A
C608        C737   1.477   1_554  S
O610        C618   1.268       .  A
O610       Co630   1.973   1_455  S
O611        C619   1.257       .  A
O611       Co631   1.966       .  S
O612        C620   1.265       .  A
O612       Co632   2.023       .  S
O613        C621   1.304       .  A
O613       Co633   2.133       .  S
O614      Co2197   1.971       .  S
O615       C2187   1.248       .  A
O616        C619   1.275       .  A
O616       Co633   2.070       .  S
O617        C618   1.284       .  A
O617       Co632   2.052       .  S
C618        C678   1.482       .  S
C619        C667   1.498       .  S
C621       O1398   1.248       .  A
C621       C1432   1.453       .  S
O622      Co1413   2.075       .  S
O623       C1419   1.279       .  A
O624        C637   1.244       .  A
O624       Co632   1.963   1_655  S
O625        C638   1.267   1_545  A
O625       Co633   1.981   1_545  S
O626        C638   1.277       .  A
O626       Co631   2.010       .  S
O627        C637   1.244   1_455  A
O627       Co630   1.932   1_455  S
O628        C635   1.278       .  A
O628       Co633   1.935       .  S
O629        C636   1.254       .  A
O629       Co632   1.943   1_655  S
Co630      O2188   2.075       .  S
Co631      O1397   1.971       .  S
Co631      O1417   1.982   1_565  S
Co633      O1417   2.074   1_565  S
O634      Co2197   1.982   1_645  S
O634      Co2199   2.074   1_545  S
C636       O2189   1.279   1_655  A
C636       C2230   1.447       .  S
C637        C647   1.418   1_655  S
C638        C693   1.468       .  S
O639        C647   1.248       .  A
O639       Co659   1.935       .  S
O640        C648   1.278       .  A
O640       Co660   2.017       .  S
O641        C649   1.251       .  A
O641       Co661   1.940   1_655  S
O642        C650   1.279       .  A
O642       Co662   1.927       .  S
O643       C1432   1.281       .  A
O644      Co1442   2.080       .  S
O645        C648   1.277       .  A
O645       Co662   1.999       .  S
O646        C647   1.248   1_655  A
O646       Co661   1.964   1_655  S
C648        C679   1.473       .  S
C649       O2209   1.281   1_655  A
C649       C2187   1.453       .  S
C650        O731   1.287       .  A
C650        C782   1.477       .  S
O651       C2230   1.252   1_455  A
O651       Co746   1.846       .  S
O652        C752   1.256       .  A
O652      Co2226   1.972       .  S
O653        C666   1.274       .  A
O653       Co661   2.022       .  S
O654        C667   1.272       .  A
O654       Co662   2.063       .  S
O655        C667   1.258       .  A
O655       Co660   1.971       .  S
O656        C666   1.265       .  A
O656       Co659   1.969       .  S
O657        C664   1.305       .  A
O657       Co662   2.142       .  S
O658        C665   1.271       .  A
O658       Co661   2.030       .  S
Co659      O2210   2.080   1_455  S
Co659      O2142   1.954   1_455  S
Co660       O730   2.031       .  S
Co660      O1435   1.972       .  S
Co660       O663   1.980       .  S
Co661      O2142   2.071   1_455  S
Co662       O663   2.054       .  S
O663      Co1529   1.954       .  S
O663      Co1531   2.071       .  S
C664       O1434   1.252       .  A
C664       C1419   1.447       .  S
C666        C694   1.459       .  S
O668        C676   1.275       .  A
O668       Co688   1.959       .  S
O669        C677   1.250       .  A
O669       Co689   1.955   1_565  S
O670        C678   1.271       .  A
O670       Co690   2.032       .  S
O671        C679   1.253       .  A
O671       Co691   1.970       .  S
O674        C677   1.262       .  A
O674       Co691   2.009       .  S
O675        C676   1.285       .  A
O675       Co690   2.132       .  S
C677        C752   1.460       .  S
C679        O760   1.265       .  A
O680       Co775   1.988       .  S
O681        C781   1.247       .  A
O682        C695   1.260       .  A
O682       Co690   2.050       .  S
O683        C696   1.260   1_565  A
O683       Co691   1.995       .  S
O684        C696   1.265       .  A
O684       Co689   1.994       .  S
O685        C695   1.279       .  A
O685       Co688   2.027       .  S
O686        C693   1.265       .  A
O686       Co691   1.993       .  S
O687        C694   1.243       .  A
O687       Co690   1.990       .  S
Co689       O759   1.979   1_545  S
O692       Co775   1.990       .  S
O692       Co777   2.182       .  S
O697        C705   1.268       .  A
O697       Co717   1.973   1_455  S
O698        C706   1.257       .  A
O698       Co718   1.966       .  S
O699        C707   1.265       .  A
O699       Co719   2.023       .  S
O700        C708   1.304       .  A
O700       Co720   2.134       .  S
O701      Co2284   1.971       .  S
O702       C2274   1.248   1_455  A
O703        C706   1.276       .  A
O703       Co720   2.070       .  S
O704        C705   1.284       .  A
O704       Co719   2.052       .  S
C705        C765   1.482       .  S
C706        C754   1.498       .  S
C708       O1485   1.248       .  A
C708       C1519   1.453       .  S
O709      Co1500   2.075       .  S
O710       C1506   1.279       .  A
O711        C724   1.244       .  A
O711       Co719   1.963   1_655  S
O712        C725   1.267   1_545  A
O712       Co720   1.981   1_545  S
O713        C725   1.277       .  A
O713       Co718   2.010       .  S
O714        C724   1.244   1_455  A
O714       Co717   1.931   1_455  S
O715        C722   1.278       .  A
O715       Co720   1.935       .  S
O716        C723   1.254       .  A
O716       Co719   1.943   1_655  S
Co717      O2275   2.075       .  S
Co718      O1484   1.971       .  S
Co718      O1504   1.982   1_565  S
Co720      O1504   2.074   1_565  S
O721      Co2284   1.982   1_645  S
O721      Co2286   2.074   1_545  S
C723       O2276   1.279   1_655  A
C723       C2317   1.447       .  S
C724        C734   1.418   1_655  S
C725        C780   1.468       .  S
O726        C734   1.248       .  A
O726       Co746   1.935       .  S
O727        C735   1.278       .  A
O727       Co747   2.017       .  S
O728        C736   1.251       .  A
O728       Co748   1.940   1_655  S
O729        C737   1.279       .  A
O729       Co749   1.927       .  S
O730       C1519   1.281       .  A
O731      Co1529   2.080       .  S
O732        C735   1.277   1_554  A
O732       Co749   1.999   1_554  S
O733        C734   1.248   1_655  A
O733       Co748   1.964   1_655  S
C735        C766   1.474   1_556  S
C736       O2296   1.281   1_655  A
C736       C2274   1.453       .  S
O738       C2317   1.252   1_455  A
O739      Co2313   1.972       .  S
O740        C753   1.274       .  A
O740       Co748   2.022       .  S
O741        C754   1.272       .  A
O741       Co749   2.063       .  S
O742        C754   1.258       .  A
O742       Co747   1.971       .  S
O743        C753   1.265       .  A
O743       Co746   1.969       .  S
O744        C751   1.306       .  A
O744       Co749   2.143       .  S
O745        C752   1.271       .  A
O745       Co748   2.030       .  S
Co746      O2297   2.080   1_455  S
Co746      O2229   1.954   1_455  S
Co747      O1522   1.972       .  S
Co747       O750   1.980   1_556  S
Co748      O2229   2.071   1_455  S
Co749       O750   2.054   1_556  S
O750      Co1355   1.954   1_554  S
O750      Co1357   2.071       .  S
C751       O1521   1.252       .  A
C751       C1506   1.447       .  S
C753        C781   1.459       .  S
O755        C763   1.275       .  A
O755       Co775   1.959       .  S
O756        C764   1.250       .  A
O756       Co776   1.955   1_566  S
O757        C765   1.271       .  A
O757       Co777   2.032       .  S
O758        C766   1.253   1_556  A
O758       Co778   1.970       .  S
O761        C764   1.262       .  A
O761       Co778   2.009       .  S
O762        C763   1.285       .  A
O762       Co777   2.132       .  S
O769        C782   1.260       .  A
O769       Co777   2.050       .  S
O770        C783   1.260   1_565  A
O770       Co778   1.995       .  S
O771        C783   1.265       .  A
O771       Co776   1.994   1_556  S
O772        C782   1.279       .  A
O772       Co775   2.027       .  S
O773        C780   1.265       .  A
O773       Co778   1.993       .  S
O774        C781   1.243       .  A
O774       Co777   1.990       .  S
O784        C792   1.268   1_565  A
O784       Co804   1.973       .  S
O785        C793   1.257       .  A
O785       Co805   1.966       .  S
O786        C794   1.265       .  A
O786       Co806   2.023       .  S
O787        C795   1.304       .  A
O787       Co807   2.134       .  S
O788       C1055   1.261       .  A
O789      Co1065   1.865       .  S
O790        C793   1.275       .  A
O790       Co807   2.070       .  S
O791        C792   1.284       .  A
O791       Co806   2.052       .  S
C792        C852   1.482       .  S
C793        C841   1.498       .  S
C794       O1310   1.261   1_545  A
C794       C1392   1.470       .  S
C795       O1572   1.248       .  A
C795       C1606   1.453       .  S
O796       C1331   1.289   1_545  A
O796      Co1587   2.075   1_545  S
O797       C1593   1.279       .  A
O797      Co1327   2.019   1_545  S
O798        C811   1.244       .  A
O798       Co806   1.963       .  S
O799        C812   1.267       .  A
O799       Co807   1.981       .  S
O800        C812   1.277       .  A
O800       Co805   2.010       .  S
O801        C811   1.244       .  A
O801       Co804   1.932   1_545  S
O802        C809   1.278       .  A
O802       Co807   1.934       .  S
O803        C810   1.254       .  A
O803       Co806   1.943       .  S
Co804      O1311   1.865       .  S
Co804      O1330   1.958   1_565  S
Co805      O1571   1.971       .  S
Co805      O1058   2.020       .  S
Co805      O1591   1.982       .  S
Co806      O1330   2.070       .  S
Co807      O1591   2.074       .  S
O808      Co1065   1.958       .  S
O808      Co1067   2.070       .  S
C809       O1057   1.289       .  A
C809       C1111   1.474       .  S
C811        C821   1.418       .  S
C812        C867   1.468       .  S
O813        C821   1.248       .  A
O813       Co833   1.935   1_554  S
O814        C822   1.278       .  A
O814       Co834   2.017       .  S
O815        C823   1.251       .  A
O815       Co835   1.940       .  S
O816        C824   1.279       .  A
O816       Co836   1.927       .  S
O817       C1606   1.281       .  A
O817      Co1008   2.031   1_554  S
O818        C998   1.287   1_554  A
O818      Co1616   2.080   1_554  S
O819        C822   1.277       .  A
O819       Co836   1.999       .  S
O820        C821   1.248       .  A
O820       Co835   1.964       .  S
C822        C853   1.473       .  S
C824        O905   1.287       .  A
C824        C956   1.477       .  S
O825       Co920   1.846       .  S
O826        C926   1.256       .  A
O827        C840   1.274       .  A
O827       Co835   2.022       .  S
O828        C841   1.272       .  A
O828       Co836   2.063       .  S
O829        C841   1.258       .  A
O829       Co834   1.971       .  S
O830        C840   1.265   1_556  A
O830       Co833   1.969       .  S
O831        C838   1.305       .  A
O831       Co836   2.142       .  S
O832        C839   1.271       .  A
O832       Co835   2.031       .  S
Co833       O999   1.847       .  S
Co834       O904   2.031       .  S
Co834      O1609   1.972       .  S
Co834       O837   1.980       .  S
Co836       O837   2.054       .  S
O837      Co1703   1.954       .  S
O837      Co1705   2.071       .  S
C838       O1608   1.252       .  A
C838       C1593   1.447       .  S
C839       O1000   1.256   1_554  A
C839       C1025   1.460   1_554  S
C840        C868   1.459       .  S
O842        C850   1.275       .  A
O842       Co862   1.959       .  S
O843        C851   1.250       .  A
O843       Co863   1.955       .  S
O844        C852   1.271       .  A
O844       Co864   2.032       .  S
O845        C853   1.253       .  A
O845       Co865   1.970       .  S
O846       C1113   1.262       .  A
O846      Co1037   1.979       .  S
O847       C1027   1.265       .  A
O847      Co1123   2.023       .  S
O848        C851   1.262       .  A
O848       Co865   2.009       .  S
O849        C850   1.285       .  A
O849       Co864   2.132       .  S
C850       C1331   1.474   1_545  S
C851        C926   1.460       .  S
C852       O1368   1.262   1_545  A
C853        O934   1.265       .  A
O854       C1389   1.262   1_545  A
O854       Co949   1.988       .  S
O855        C955   1.247       .  A
O855      Co1385   1.976       .  S
O856        C869   1.260   1_556  A
O856       Co864   2.050   1_556  S
O857        C870   1.260       .  A
O857       Co865   1.995       .  S
O858        C870   1.265       .  A
O858       Co863   1.993       .  S
O859        C869   1.279       .  A
O859       Co862   2.027       .  S
O860        C867   1.265       .  A
O860       Co865   1.993       .  S
O861        C868   1.243       .  A
O861       Co864   1.990       .  S
Co862      O1369   2.023   1_545  S
Co862      O1028   1.988   1_554  S
Co862      O1040   1.990   1_544  S
Co863       O933   1.979       .  S
Co863      O1116   1.976       .  S
Co863      O1127   2.090       .  S
Co864      O1040   2.182   1_544  S
Co865      O1127   2.122       .  S
O866       Co949   1.990   1_565  S
O866      Co1385   2.090   1_565  S
O866       Co951   2.182   1_565  S
O866      Co1387   2.122       .  S
C867       O1115   1.262       .  A
C868       O1029   1.247       .  A
C869        C998   1.477   1_554  S
C870       C1055   1.470       .  S
O871        C879   1.268   1_565  A
O871       Co891   1.973       .  S
O872        C880   1.257       .  A
O872       Co892   1.966       .  S
O873        C881   1.265       .  A
O873       Co893   2.023       .  S
O874        C882   1.304       .  A
O874       Co894   2.134       .  S
O875       C1142   1.261       .  A
O876      Co1152   1.866       .  S
O877        C880   1.275       .  A
O877       Co894   2.070       .  S
O878        C879   1.284       .  A
O878       Co893   2.052       .  S
C879        C939   1.482       .  S
C880        C928   1.498       .  S
C881       O1397   1.261   1_545  A
C881       C1479   1.471       .  S
C882       O1659   1.248       .  A
C882       C1693   1.453       .  S
O883       C1418   1.289   1_545  A
O883      Co1674   2.075   1_545  S
O884       C1680   1.279       .  A
O884      Co1414   2.020   1_545  S
O885        C898   1.244       .  A
O885       Co893   1.963       .  S
O886        C899   1.267       .  A
O886       Co894   1.981       .  S
O887        C899   1.277       .  A
O887       Co892   2.010       .  S
O888        C898   1.244       .  A
O888       Co891   1.931   1_545  S
O889        C896   1.278       .  A
O889       Co894   1.935       .  S
O890        C897   1.254       .  A
O890       Co893   1.943       .  S
Co891      O1398   1.866       .  S
Co891      O1417   1.958   1_565  S
Co892      O1658   1.971       .  S
Co892      O1145   2.020       .  S
Co892      O1678   1.982       .  S
Co893      O1417   2.070       .  S
Co894      O1678   2.074       .  S
O895      Co1152   1.958       .  S
O895      Co1154   2.070       .  S
C896       O1144   1.289       .  A
C896       C1198   1.474       .  S
C898        C908   1.418       .  S
C899        C954   1.468       .  S
O900        C908   1.248       .  A
O900       Co920   1.935       .  S
O901        C909   1.278       .  A
O901       Co921   2.016       .  S
O902        C910   1.251       .  A
O902       Co922   1.940       .  S
O903        C911   1.279       .  A
O903       Co923   1.927       .  S
O904       C1693   1.281       .  A
O905      Co1703   2.080       .  S
O906        C909   1.277       .  A
O906       Co923   1.999       .  S
O907        C908   1.248       .  A
O907       Co922   1.964       .  S
C909        C940   1.473       .  S
C911        O992   1.287       .  A
C911       C1043   1.477       .  S
O912      Co1007   1.847       .  S
O913       C1013   1.256       .  A
O914        C927   1.274       .  A
O914       Co922   2.022       .  S
O915        C928   1.272       .  A
O915       Co923   2.063       .  S
O916        C928   1.258       .  A
O916       Co921   1.971       .  S
O917        C927   1.265       .  A
O917       Co920   1.969       .  S
O918        C925   1.305       .  A
O918       Co923   2.142       .  S
O919        C926   1.271       .  A
O919       Co922   2.031       .  S
Co921       O991   2.031       .  S
Co921      O1696   1.972       .  S
Co921       O924   1.980       .  S
Co923       O924   2.054       .  S
O924      Co1790   1.954       .  S
O924      Co1792   2.071       .  S
C925       O1695   1.252       .  A
C925       C1680   1.447       .  S
C927        C955   1.459       .  S
O929        C937   1.275       .  A
O929       Co949   1.959       .  S
O930        C938   1.250       .  A
O930       Co950   1.956       .  S
O931        C939   1.271       .  A
O931       Co951   2.032       .  S
O932        C940   1.252       .  A
O932       Co952   1.969       .  S
O933       C1200   1.262       .  A
O934      Co1210   2.023       .  S
O935        C938   1.262       .  A
O935       Co952   2.009       .  S
O936        C937   1.285       .  A
O936       Co951   2.132       .  S
C937       C1418   1.474   1_545  S
C938       C1013   1.460       .  S
C939       O1455   1.262   1_545  A
C940       O1021   1.265       .  A
O941       C1476   1.262   1_545  A
O941      Co1036   1.988       .  S
O942       C1042   1.247       .  A
O942      Co1472   1.976       .  S
O943        C956   1.260       .  A
O943       Co951   2.050       .  S
O944        C957   1.260       .  A
O944       Co952   1.995       .  S
O945        C957   1.265       .  A
O945       Co950   1.994       .  S
O946        C956   1.279       .  A
O946       Co949   2.027       .  S
O947        C954   1.265       .  A
O947       Co952   1.993       .  S
O948        C955   1.243       .  A
O948       Co951   1.990       .  S
Co949      O1456   2.023   1_545  S
Co950      O1020   1.979       .  S
Co950      O1203   1.976       .  S
Co950      O1214   2.090       .  S
Co952      O1214   2.123       .  S
O953      Co1036   1.990   1_565  S
O953      Co1472   2.090   1_565  S
O953      Co1038   2.183   1_565  S
O953      Co1474   2.123       .  S
C954       O1202   1.262       .  A
C957       C1142   1.471       .  S
O958        C966   1.268   1_565  A
O958       Co978   1.973       .  S
O959        C967   1.257       .  A
O959       Co979   1.966       .  S
O960        C968   1.265       .  A
O960       Co980   2.023       .  S
O961        C969   1.304       .  A
O961       Co981   2.134       .  S
O962       C1229   1.261       .  A
O963      Co1239   1.865       .  S
O964        C967   1.275       .  A
O964       Co981   2.070       .  S
O965        C966   1.284       .  A
O965       Co980   2.052       .  S
C966       C1026   1.483       .  S
C967       C1015   1.498       .  S
C968       O1484   1.261   1_545  A
C968       C1566   1.471       .  S
C969       O1746   1.248       .  A
C969       C1780   1.453       .  S
O970       C1505   1.289   1_545  A
O970      Co1761   2.075   1_545  S
O971       C1767   1.279       .  A
O971      Co1501   2.020   1_545  S
O972        C985   1.244       .  A
O972       Co980   1.963       .  S
O973        C986   1.267       .  A
O973       Co981   1.981       .  S
O974        C986   1.277       .  A
O974       Co979   2.010       .  S
O975        C985   1.244       .  A
O975       Co978   1.932   1_545  S
O976        C983   1.278       .  A
O976       Co981   1.934       .  S
O977        C984   1.254       .  A
O977       Co980   1.943       .  S
Co978      O1485   1.865       .  S
Co978      O1504   1.958   1_565  S
Co979      O1745   1.971       .  S
Co979      O1232   2.020       .  S
Co979      O1765   1.982       .  S
Co980      O1504   2.070       .  S
Co981      O1765   2.074       .  S
O982      Co1239   1.958       .  S
O982      Co1241   2.070       .  S
C983       O1231   1.289       .  A
C983       C1285   1.474       .  S
C985        C995   1.418       .  S
C986       C1041   1.468       .  S
O987        C995   1.249       .  A
O987      Co1007   1.935       .  S
O988        C996   1.278       .  A
O988      Co1008   2.017       .  S
O989        C997   1.251       .  A
O989      Co1009   1.940       .  S
O990        C998   1.279       .  A
O990      Co1010   1.927       .  S
O991       C1780   1.281       .  A
O992      Co1790   2.080       .  S
O993        C996   1.277   1_554  A
O993      Co1010   1.999   1_554  S
O994        C995   1.248       .  A
O994      Co1009   1.964       .  S
C996       C1027   1.473   1_556  S
O1001      C1014   1.274       .  A
O1001     Co1009   2.022       .  S
O1002      C1015   1.272       .  A
O1002     Co1010   2.063       .  S
O1003      C1015   1.258       .  A
O1003     Co1008   1.971       .  S
O1004      C1014   1.265       .  A
O1004     Co1007   1.969       .  S
O1005      C1012   1.305       .  A
O1005     Co1010   2.142       .  S
O1006      C1013   1.271       .  A
O1006     Co1009   2.031       .  S
Co1008     O1783   1.972       .  S
Co1008     O1011   1.980   1_556  S
Co1010     O1011   2.054   1_556  S
O1011     Co1616   1.954   1_554  S
O1011     Co1618   2.071       .  S
C1012      O1782   1.252       .  A
C1012      C1767   1.447       .  S
C1014      C1042   1.459       .  S
O1016      C1024   1.275       .  A
O1016     Co1036   1.959       .  S
O1017      C1025   1.250       .  A
O1017     Co1037   1.955   1_556  S
O1018      C1026   1.271       .  A
O1018     Co1038   2.032       .  S
O1019      C1027   1.252   1_556  A
O1019     Co1039   1.970       .  S
O1020      C1287   1.262       .  A
O1021     Co1297   2.023       .  S
O1022      C1025   1.262       .  A
O1022     Co1039   2.009       .  S
O1023      C1024   1.285       .  A
O1023     Co1038   2.132       .  S
C1024      C1505   1.474   1_545  S
C1026      O1542   1.262   1_545  A
O1028      C1563   1.262   1_545  A
O1029     Co1559   1.976       .  S
O1030      C1043   1.260       .  A
O1030     Co1038   2.050       .  S
O1031      C1044   1.260       .  A
O1031     Co1039   1.995       .  S
O1032      C1044   1.265       .  A
O1032     Co1037   1.994   1_556  S
O1033      C1043   1.279       .  A
O1033     Co1036   2.027       .  S
O1034      C1041   1.265       .  A
O1034     Co1039   1.993       .  S
O1035      C1042   1.243       .  A
O1035     Co1038   1.990       .  S
Co1036     O1543   2.023   1_545  S
Co1037     O1290   1.976       .  S
Co1037     O1301   2.090   1_554  S
Co1039     O1301   2.123       .  S
O1040     Co1559   2.090   1_566  S
O1040     Co1561   2.122       .  S
C1041      O1289   1.262       .  A
C1044      C1229   1.470       .  S
O1045      C1053   1.268       .  A
O1045     Co1065   1.972       .  S
O1046      C1054   1.257       .  A
O1046     Co1066   1.966       .  S
O1047      C1055   1.265       .  A
O1047     Co1067   2.023       .  S
O1048      C1056   1.304       .  A
O1048     Co1068   2.134       .  S
O1049      C1316   1.261       .  A
O1050     Co1326   1.865       .  S
O1051      C1054   1.276       .  A
O1051     Co1068   2.070       .  S
O1052      C1053   1.284       .  A
O1052     Co1067   2.052       .  S
C1053      C1113   1.482       .  S
C1054      C1102   1.498       .  S
C1056      O1833   1.248       .  A
C1056      C1867   1.453       .  S
O1057     Co1848   2.075       .  S
O1058      C1854   1.279       .  A
O1059      C1072   1.244       .  A
O1059     Co1067   1.963       .  S
O1060      C1073   1.267       .  A
O1060     Co1068   1.981       .  S
O1061      C1073   1.277       .  A
O1061     Co1066   2.010       .  S
O1062      C1072   1.244       .  A
O1062     Co1065   1.932       .  S
O1063      C1070   1.278       .  A
O1063     Co1068   1.935       .  S
O1064      C1071   1.254       .  A
O1064     Co1067   1.943       .  S
Co1066     O1832   1.971       .  S
Co1066     O1319   2.020       .  S
Co1066     O1852   1.982       .  S
Co1068     O1852   2.074       .  S
O1069     Co1326   1.958       .  S
O1069     Co1328   2.070       .  S
C1070      O1318   1.289       .  A
C1070      C1372   1.474       .  S
C1072      C1082   1.418       .  S
C1073      C1128   1.468       .  S
O1074      C1082   1.248       .  A
O1074     Co1094   1.935   1_554  S
O1075      C1083   1.278       .  A
O1075     Co1095   2.017       .  S
O1076      C1084   1.251       .  A
O1076     Co1096   1.940       .  S
O1077      C1085   1.279       .  A
O1077     Co1097   1.927       .  S
O1078      C1867   1.281       .  A
O1078     Co1269   2.031   1_554  S
O1079      C1259   1.287   1_554  A
O1079     Co1877   2.080   1_554  S
O1080      C1083   1.277       .  A
O1080     Co1097   1.999       .  S
O1081      C1082   1.248       .  A
O1081     Co1096   1.964       .  S
C1083      C1114   1.474       .  S
C1085      O1166   1.287       .  A
C1085      C1217   1.477       .  S
O1086     Co1181   1.847       .  S
O1087      C1187   1.256       .  A
O1088      C1101   1.274       .  A
O1088     Co1096   2.022       .  S
O1089      C1102   1.272       .  A
O1089     Co1097   2.063       .  S
O1090      C1102   1.258       .  A
O1090     Co1095   1.971       .  S
O1091      C1101   1.265   1_556  A
O1091     Co1094   1.969       .  S
O1092      C1099   1.306       .  A
O1092     Co1097   2.143       .  S
O1093      C1100   1.271       .  A
O1093     Co1096   2.031       .  S
Co1094     O1260   1.847       .  S
Co1095     O1165   2.031       .  S
Co1095     O1870   1.972       .  S
Co1095     O1098   1.980       .  S
Co1097     O1098   2.054       .  S
O1098     Co1964   1.954       .  S
O1098     Co1966   2.071       .  S
C1099      O1869   1.252       .  A
C1099      C1854   1.448       .  S
C1100      O1261   1.256   1_554  A
C1100      C1286   1.460   1_554  S
C1101      C1129   1.459       .  S
O1103      C1111   1.275       .  A
O1103     Co1123   1.959       .  S
O1104      C1112   1.250       .  A
O1104     Co1124   1.955       .  S
O1105      C1113   1.271       .  A
O1105     Co1125   2.032       .  S
O1106      C1114   1.253       .  A
O1106     Co1126   1.970       .  S
O1107      C1374   1.262       .  A
O1107     Co1298   1.979       .  S
O1108      C1288   1.265       .  A
O1108     Co1384   2.023       .  S
O1109      C1112   1.262       .  A
O1109     Co1126   2.009       .  S
O1110      C1111   1.285       .  A
O1110     Co1125   2.132       .  S
C1112      C1187   1.460       .  S
C1114      O1195   1.265       .  A
O1115     Co1210   1.988       .  S
O1116      C1216   1.247       .  A
O1117      C1130   1.260   1_556  A
O1117     Co1125   2.050   1_556  S
O1118      C1131   1.260       .  A
O1118     Co1126   1.995       .  S
O1119      C1131   1.265       .  A
O1119     Co1124   1.994       .  S
O1120      C1130   1.279       .  A
O1120     Co1123   2.027       .  S
O1121      C1128   1.265       .  A
O1121     Co1126   1.993       .  S
O1122      C1129   1.243       .  A
O1122     Co1125   1.990       .  S
Co1123     O1289   1.988   1_554  S
Co1123     O1301   1.990   1_554  S
Co1124     O1194   1.979       .  S
Co1124     O1377   1.976       .  S
Co1124     O1388   2.090       .  S
Co1125     O1301   2.183   1_554  S
Co1126     O1388   2.123       .  S
O1127     Co1210   1.990       .  S
O1127     Co1212   2.182       .  S
C1128      O1376   1.262       .  A
C1129      O1290   1.247       .  A
C1130      C1259   1.477   1_554  S
C1131      C1316   1.471       .  S
O1132      C1140   1.268       .  A
O1132     Co1152   1.973       .  S
O1133      C1141   1.257       .  A
O1133     Co1153   1.966       .  S
O1134      C1142   1.265       .  A
O1134     Co1154   2.023       .  S
O1135      C1143   1.304       .  A
O1135     Co1155   2.134       .  S
O1136      C1403   1.261       .  A
O1137     Co1413   1.865       .  S
O1138      C1141   1.276       .  A
O1138     Co1155   2.070       .  S
O1139      C1140   1.284       .  A
O1139     Co1154   2.052       .  S
C1140      C1200   1.482       .  S
C1141      C1189   1.498       .  S
C1143      O1920   1.248       .  A
C1143      C1954   1.453       .  S
O1144     Co1935   2.075       .  S
O1145      C1941   1.279       .  A
O1146      C1159   1.244       .  A
O1146     Co1154   1.963       .  S
O1147      C1160   1.267       .  A
O1147     Co1155   1.981       .  S
O1148      C1160   1.277       .  A
O1148     Co1153   2.010       .  S
O1149      C1159   1.244       .  A
O1149     Co1152   1.932       .  S
O1150      C1157   1.278       .  A
O1150     Co1155   1.935       .  S
O1151      C1158   1.254       .  A
O1151     Co1154   1.943       .  S
Co1153     O1919   1.971       .  S
Co1153     O1406   2.019       .  S
Co1153     O1939   1.982       .  S
Co1155     O1939   2.074       .  S
O1156     Co1413   1.958       .  S
O1156     Co1415   2.070       .  S
C1157      O1405   1.289       .  A
C1157      C1459   1.474       .  S
C1159      C1169   1.418       .  S
C1160      C1215   1.468       .  S
O1161      C1169   1.248       .  A
O1161     Co1181   1.935       .  S
O1162      C1170   1.278       .  A
O1162     Co1182   2.017       .  S
O1163      C1171   1.251       .  A
O1163     Co1183   1.940       .  S
O1164      C1172   1.279       .  A
O1164     Co1184   1.926       .  S
O1165      C1954   1.281       .  A
O1166     Co1964   2.080       .  S
O1167      C1170   1.277       .  A
O1167     Co1184   1.999       .  S
O1168      C1169   1.248       .  A
O1168     Co1183   1.964       .  S
C1170      C1201   1.474       .  S
C1172      O1253   1.287       .  A
C1172      C1304   1.477       .  S
O1173     Co1268   1.847       .  S
O1174      C1274   1.256       .  A
O1175      C1188   1.274       .  A
O1175     Co1183   2.022       .  S
O1176      C1189   1.272       .  A
O1176     Co1184   2.063       .  S
O1177      C1189   1.258       .  A
O1177     Co1182   1.971       .  S
O1178      C1188   1.265       .  A
O1178     Co1181   1.969       .  S
O1179      C1186   1.306       .  A
O1179     Co1184   2.143       .  S
O1180      C1187   1.271       .  A
O1180     Co1183   2.031       .  S
Co1182     O1252   2.031       .  S
Co1182     O1957   1.972       .  S
Co1182     O1185   1.980       .  S
Co1184     O1185   2.054       .  S
O1185     Co2051   1.954       .  S
O1185     Co2053   2.071       .  S
C1186      O1956   1.252       .  A
C1186      C1941   1.448       .  S
C1188      C1216   1.459       .  S
O1190      C1198   1.275       .  A
O1190     Co1210   1.959       .  S
O1191      C1199   1.250       .  A
O1191     Co1211   1.955       .  S
O1192      C1200   1.271       .  A
O1192     Co1212   2.032       .  S
O1193      C1201   1.253       .  A
O1193     Co1213   1.970       .  S
O1194      C1461   1.262       .  A
O1195     Co1471   2.023       .  S
O1196      C1199   1.262       .  A
O1196     Co1213   2.009       .  S
O1197      C1198   1.285       .  A
O1197     Co1212   2.132       .  S
C1199      C1274   1.460       .  S
C1201      O1282   1.265       .  A
O1202     Co1297   1.988       .  S
O1203      C1303   1.247       .  A
O1204      C1217   1.260       .  A
O1204     Co1212   2.050       .  S
O1205      C1218   1.260       .  A
O1205     Co1213   1.995       .  S
O1206      C1218   1.265       .  A
O1206     Co1211   1.993       .  S
O1207      C1217   1.279       .  A
O1207     Co1210   2.027       .  S
O1208      C1215   1.265       .  A
O1208     Co1213   1.993       .  S
O1209      C1216   1.243       .  A
O1209     Co1212   1.990       .  S
Co1211     O1281   1.979       .  S
Co1211     O1464   1.976       .  S
Co1211     O1475   2.090       .  S
Co1213     O1475   2.122       .  S
O1214     Co1297   1.990       .  S
O1214     Co1299   2.183       .  S
C1215      O1463   1.262       .  A
C1218      C1403   1.470       .  S
O1219      C1227   1.268       .  A
O1219     Co1239   1.972       .  S
O1220      C1228   1.257       .  A
O1220     Co1240   1.966       .  S
O1221      C1229   1.265       .  A
O1221     Co1241   2.023       .  S
O1222      C1230   1.304       .  A
O1222     Co1242   2.134       .  S
O1223      C1490   1.261       .  A
O1224     Co1500   1.866       .  S
O1225      C1228   1.276       .  A
O1225     Co1242   2.070       .  S
O1226      C1227   1.284       .  A
O1226     Co1241   2.052       .  S
C1227      C1287   1.483       .  S
C1228      C1276   1.498       .  S
C1230      O2007   1.248       .  A
C1230      C2041   1.453       .  S
O1231     Co2022   2.075       .  S
O1232      C2028   1.279       .  A
O1233      C1246   1.244       .  A
O1233     Co1241   1.963       .  S
O1234      C1247   1.267       .  A
O1234     Co1242   1.981       .  S
O1235      C1247   1.277       .  A
O1235     Co1240   2.010       .  S
O1236      C1246   1.244       .  A
O1236     Co1239   1.932       .  S
O1237      C1244   1.278       .  A
O1237     Co1242   1.935       .  S
O1238      C1245   1.254       .  A
O1238     Co1241   1.943       .  S
Co1240     O2006   1.971       .  S
Co1240     O1493   2.020       .  S
Co1240     O2026   1.982       .  S
Co1242     O2026   2.074       .  S
O1243     Co1500   1.958       .  S
O1243     Co1502   2.070       .  S
C1244      O1492   1.289       .  A
C1244      C1546   1.474       .  S
C1246      C1256   1.418       .  S
C1247      C1302   1.468       .  S
O1248      C1256   1.249       .  A
O1248     Co1268   1.936       .  S
O1249      C1257   1.278       .  A
O1249     Co1269   2.017       .  S
O1250      C1258   1.251       .  A
O1250     Co1270   1.940       .  S
O1251      C1259   1.279       .  A
O1251     Co1271   1.927       .  S
O1252      C2041   1.281       .  A
O1253     Co2051   2.080       .  S
O1254      C1257   1.277   1_554  A
O1254     Co1271   1.999   1_554  S
O1255      C1256   1.248       .  A
O1255     Co1270   1.964       .  S
C1257      C1288   1.473   1_556  S
O1262      C1275   1.274       .  A
O1262     Co1270   2.022       .  S
O1263      C1276   1.272       .  A
O1263     Co1271   2.063       .  S
O1264      C1276   1.258       .  A
O1264     Co1269   1.971       .  S
O1265      C1275   1.265       .  A
O1265     Co1268   1.969       .  S
O1266      C1273   1.306       .  A
O1266     Co1271   2.143       .  S
O1267      C1274   1.271       .  A
O1267     Co1270   2.030       .  S
Co1269     O2044   1.972       .  S
Co1269     O1272   1.980   1_556  S
Co1271     O1272   2.054   1_556  S
O1272     Co1877   1.954   1_554  S
O1272     Co1879   2.071       .  S
C1273      O2043   1.252       .  A
C1273      C2028   1.448       .  S
C1275      C1303   1.459       .  S
O1277      C1285   1.275       .  A
O1277     Co1297   1.959       .  S
O1278      C1286   1.250       .  A
O1278     Co1298   1.955   1_556  S
O1279      C1287   1.271       .  A
O1279     Co1299   2.032       .  S
O1280      C1288   1.253   1_556  A
O1280     Co1300   1.970       .  S
O1281      C1548   1.262       .  A
O1282     Co1558   2.023       .  S
O1283      C1286   1.262       .  A
O1283     Co1300   2.009       .  S
O1284      C1285   1.285       .  A
O1284     Co1299   2.132       .  S
O1291      C1304   1.260       .  A
O1291     Co1299   2.050       .  S
O1292      C1305   1.260       .  A
O1292     Co1300   1.995       .  S
O1293      C1305   1.265       .  A
O1293     Co1298   1.994   1_556  S
O1294      C1304   1.279       .  A
O1294     Co1297   2.027       .  S
O1295      C1302   1.265       .  A
O1295     Co1300   1.993       .  S
O1296      C1303   1.243       .  A
O1296     Co1299   1.990       .  S
Co1298     O1551   1.976       .  S
Co1298     O1562   2.090   1_554  S
Co1300     O1562   2.122       .  S
C1302      O1550   1.262       .  A
C1305      C1490   1.471       .  S
O1306      C1314   1.268       .  A
O1306     Co1326   1.973       .  S
O1307      C1315   1.257       .  A
O1307     Co1327   1.966       .  S
O1308      C1316   1.265       .  A
O1308     Co1328   2.023       .  S
O1309      C1317   1.304       .  A
O1309     Co1329   2.134       .  S
O1312      C1315   1.276       .  A
O1312     Co1329   2.070       .  S
O1313      C1314   1.284       .  A
O1313     Co1328   2.052       .  S
C1314      C1374   1.482       .  S
C1315      C1363   1.498       .  S
C1317      O2094   1.248       .  A
C1317      C2128   1.453       .  S
O1318     Co2109   2.075       .  S
O1319      C2115   1.279       .  A
O1320      C1333   1.244       .  A
O1320     Co1328   1.963       .  S
O1321      C1334   1.267   1_545  A
O1321     Co1329   1.981   1_545  S
O1322      C1334   1.277       .  A
O1322     Co1327   2.010       .  S
O1323      C1333   1.244       .  A
O1323     Co1326   1.932       .  S
O1324      C1331   1.278       .  A
O1324     Co1329   1.935       .  S
O1325      C1332   1.254       .  A
O1325     Co1328   1.943       .  S
Co1327     O2093   1.971       .  S
Co1327     O2113   1.982   1_565  S
Co1329     O2113   2.074   1_565  S
C1333      C1343   1.418       .  S
C1334      C1389   1.468       .  S
O1335      C1343   1.249       .  A
O1335     Co1355   1.935   1_554  S
O1336      C1344   1.278       .  A
O1336     Co1356   2.017       .  S
O1337      C1345   1.251       .  A
O1337     Co1357   1.940       .  S
O1338      C1346   1.279       .  A
O1338     Co1358   1.927       .  S
O1339      C2128   1.281       .  A
O1339     Co1530   2.031   1_554  S
O1340      C1520   1.287   1_554  A
O1340     Co2138   2.080   1_554  S
O1341      C1344   1.277       .  A
O1341     Co1358   1.999       .  S
O1342      C1343   1.248       .  A
O1342     Co1357   1.964       .  S
C1344      C1375   1.474       .  S
C1346      O1427   1.287       .  A
C1346      C1478   1.477       .  S
O1347     Co1442   1.847       .  S
O1348      C1448   1.256       .  A
O1349      C1362   1.274       .  A
O1349     Co1357   2.022       .  S
O1350      C1363   1.272       .  A
O1350     Co1358   2.063       .  S
O1351      C1363   1.258       .  A
O1351     Co1356   1.971       .  S
O1352      C1362   1.265   1_556  A
O1352     Co1355   1.969       .  S
O1353      C1360   1.305       .  A
O1353     Co1358   2.143       .  S
O1354      C1361   1.271       .  A
O1354     Co1357   2.030       .  S
Co1355     O1521   1.847       .  S
Co1356     O1426   2.031       .  S
Co1356     O2131   1.972       .  S
Co1356     O1359   1.980       .  S
Co1358     O1359   2.054       .  S
O1359     Co2225   1.954       .  S
O1359     Co2227   2.071       .  S
C1360      O2130   1.252       .  A
C1360      C2115   1.447       .  S
C1361      O1522   1.256   1_554  A
C1361      C1547   1.460   1_554  S
C1362      C1390   1.459       .  S
O1364      C1372   1.275       .  A
O1364     Co1384   1.959       .  S
O1365      C1373   1.250       .  A
O1365     Co1385   1.955   1_565  S
O1366      C1374   1.271       .  A
O1366     Co1386   2.032       .  S
O1367      C1375   1.253       .  A
O1367     Co1387   1.970       .  S
O1368     Co1559   1.979   1_565  S
O1369      C1549   1.265       .  A
O1370      C1373   1.262       .  A
O1370     Co1387   2.009       .  S
O1371      C1372   1.285       .  A
O1371     Co1386   2.132       .  S
C1373      C1448   1.460       .  S
C1375      O1456   1.265       .  A
O1376     Co1471   1.988       .  S
O1377      C1477   1.247       .  A
O1378      C1391   1.260   1_556  A
O1378     Co1386   2.050   1_556  S
O1379      C1392   1.260   1_565  A
O1379     Co1387   1.995       .  S
O1380      C1392   1.265       .  A
O1380     Co1385   1.993       .  S
O1381      C1391   1.279       .  A
O1381     Co1384   2.027       .  S
O1382      C1389   1.265       .  A
O1382     Co1387   1.993       .  S
O1383      C1390   1.243       .  A
O1383     Co1386   1.990       .  S
Co1384     O1550   1.988   1_554  S
Co1384     O1562   1.990   1_554  S
Co1385     O1455   1.979   1_545  S
Co1386     O1562   2.183   1_554  S
O1388     Co1471   1.990       .  S
O1388     Co1473   2.183       .  S
C1390      O1551   1.247       .  A
C1391      C1520   1.477   1_554  S
O1393      C1401   1.268       .  A
O1393     Co1413   1.973       .  S
O1394      C1402   1.257       .  A
O1394     Co1414   1.966       .  S
O1395      C1403   1.265       .  A
O1395     Co1415   2.023       .  S
O1396      C1404   1.304       .  A
O1396     Co1416   2.133       .  S
O1399      C1402   1.275       .  A
O1399     Co1416   2.070       .  S
O1400      C1401   1.284       .  A
O1400     Co1415   2.052       .  S
C1401      C1461   1.482       .  S
C1402      C1450   1.498       .  S
C1404      O2181   1.248       .  A
C1404      C2215   1.453       .  S
O1405     Co2196   2.075       .  S
O1406      C2202   1.279       .  A
O1407      C1420   1.244       .  A
O1407     Co1415   1.963       .  S
O1408      C1421   1.267   1_545  A
O1408     Co1416   1.981   1_545  S
O1409      C1421   1.277       .  A
O1409     Co1414   2.011       .  S
O1410      C1420   1.244       .  A
O1410     Co1413   1.932       .  S
O1411      C1418   1.278       .  A
O1411     Co1416   1.935       .  S
O1412      C1419   1.254       .  A
O1412     Co1415   1.943       .  S
Co1414     O2180   1.971       .  S
Co1414     O2200   1.982   1_565  S
Co1416     O2200   2.074   1_565  S
C1420      C1430   1.418       .  S
C1421      C1476   1.468       .  S
O1422      C1430   1.248       .  A
O1422     Co1442   1.935       .  S
O1423      C1431   1.278       .  A
O1423     Co1443   2.017       .  S
O1424      C1432   1.251       .  A
O1424     Co1444   1.940       .  S
O1425      C1433   1.279       .  A
O1425     Co1445   1.927       .  S
O1426      C2215   1.281       .  A
O1427     Co2225   2.080       .  S
O1428      C1431   1.277       .  A
O1428     Co1445   1.999       .  S
O1429      C1430   1.248       .  A
O1429     Co1444   1.964       .  S
C1431      C1462   1.473       .  S
C1433      O1514   1.287       .  A
C1433      C1565   1.477       .  S
O1434     Co1529   1.846       .  S
O1435      C1535   1.256       .  A
O1436      C1449   1.274       .  A
O1436     Co1444   2.022       .  S
O1437      C1450   1.272       .  A
O1437     Co1445   2.063       .  S
O1438      C1450   1.258       .  A
O1438     Co1443   1.971       .  S
O1439      C1449   1.265       .  A
O1439     Co1442   1.969       .  S
O1440      C1447   1.305       .  A
O1440     Co1445   2.142       .  S
O1441      C1448   1.271       .  A
O1441     Co1444   2.030       .  S
Co1443     O1513   2.031       .  S
Co1443     O2218   1.972       .  S
Co1443     O1446   1.980       .  S
Co1445     O1446   2.054       .  S
O1446     Co2312   1.954       .  S
O1446     Co2314   2.071       .  S
C1447      O2217   1.252       .  A
C1447      C2202   1.447       .  S
C1449      C1477   1.459       .  S
O1451      C1459   1.275       .  A
O1451     Co1471   1.959       .  S
O1452      C1460   1.250       .  A
O1452     Co1472   1.955   1_565  S
O1453      C1461   1.271       .  A
O1453     Co1473   2.032       .  S
O1454      C1462   1.253       .  A
O1454     Co1474   1.970       .  S
O1457      C1460   1.262       .  A
O1457     Co1474   2.009       .  S
O1458      C1459   1.285       .  A
O1458     Co1473   2.132       .  S
C1460      C1535   1.460       .  S
C1462      O1543   1.265       .  A
O1463     Co1558   1.988       .  S
O1464      C1564   1.247       .  A
O1465      C1478   1.260       .  A
O1465     Co1473   2.050       .  S
O1466      C1479   1.260   1_565  A
O1466     Co1474   1.995       .  S
O1467      C1479   1.265       .  A
O1467     Co1472   1.994       .  S
O1468      C1478   1.279       .  A
O1468     Co1471   2.027       .  S
O1469      C1476   1.265       .  A
O1469     Co1474   1.993       .  S
O1470      C1477   1.243       .  A
O1470     Co1473   1.990       .  S
Co1472     O1542   1.979   1_545  S
O1475     Co1558   1.990       .  S
O1475     Co1560   2.182       .  S
O1480      C1488   1.268       .  A
O1480     Co1500   1.973       .  S
O1481      C1489   1.257       .  A
O1481     Co1501   1.966       .  S
O1482      C1490   1.265       .  A
O1482     Co1502   2.023       .  S
O1483      C1491   1.304       .  A
O1483     Co1503   2.134       .  S
O1486      C1489   1.276       .  A
O1486     Co1503   2.070       .  S
O1487      C1488   1.284       .  A
O1487     Co1502   2.052       .  S
C1488      C1548   1.482       .  S
C1489      C1537   1.498       .  S
C1491      O2268   1.248       .  A
C1491      C2302   1.453       .  S
O1492     Co2283   2.075       .  S
O1493      C2289   1.279       .  A
O1494      C1507   1.244       .  A
O1494     Co1502   1.963       .  S
O1495      C1508   1.267   1_545  A
O1495     Co1503   1.981   1_545  S
O1496      C1508   1.277       .  A
O1496     Co1501   2.010       .  S
O1497      C1507   1.244       .  A
O1497     Co1500   1.931       .  S
O1498      C1505   1.278       .  A
O1498     Co1503   1.935       .  S
O1499      C1506   1.254       .  A
O1499     Co1502   1.943       .  S
Co1501     O2267   1.971       .  S
Co1501     O2287   1.982   1_565  S
Co1503     O2287   2.074   1_565  S
C1507      C1517   1.418       .  S
C1508      C1563   1.468       .  S
O1509      C1517   1.248       .  A
O1509     Co1529   1.935       .  S
O1510      C1518   1.278       .  A
O1510     Co1530   2.017       .  S
O1511      C1519   1.251       .  A
O1511     Co1531   1.940       .  S
O1512      C1520   1.279       .  A
O1512     Co1532   1.927       .  S
O1513      C2302   1.281       .  A
O1514     Co2312   2.080       .  S
O1515      C1518   1.277   1_554  A
O1515     Co1532   1.999   1_554  S
O1516      C1517   1.248       .  A
O1516     Co1531   1.964       .  S
C1518      C1549   1.474   1_556  S
O1523      C1536   1.274       .  A
O1523     Co1531   2.022       .  S
O1524      C1537   1.272       .  A
O1524     Co1532   2.063       .  S
O1525      C1537   1.258       .  A
O1525     Co1530   1.971       .  S
O1526      C1536   1.265       .  A
O1526     Co1529   1.969       .  S
O1527      C1534   1.305       .  A
O1527     Co1532   2.143       .  S
O1528      C1535   1.271       .  A
O1528     Co1531   2.031       .  S
Co1530     O2305   1.972       .  S
Co1530     O1533   1.980   1_556  S
Co1532     O1533   2.054   1_556  S
O1533     Co2138   1.954   1_554  S
O1533     Co2140   2.071       .  S
C1534      O2304   1.252       .  A
C1534      C2289   1.447       .  S
C1536      C1564   1.459       .  S
O1538      C1546   1.275       .  A
O1538     Co1558   1.959       .  S
O1539      C1547   1.250       .  A
O1539     Co1559   1.955   1_566  S
O1540      C1548   1.271       .  A
O1540     Co1560   2.032       .  S
O1541      C1549   1.253   1_556  A
O1541     Co1561   1.970       .  S
O1544      C1547   1.262       .  A
O1544     Co1561   2.009       .  S
O1545      C1546   1.285       .  A
O1545     Co1560   2.132       .  S
O1552      C1565   1.260       .  A
O1552     Co1560   2.050       .  S
O1553      C1566   1.260   1_565  A
O1553     Co1561   1.995       .  S
O1554      C1566   1.265       .  A
O1554     Co1559   1.994   1_556  S
O1555      C1565   1.279       .  A
O1555     Co1558   2.027       .  S
O1556      C1563   1.265       .  A
O1556     Co1561   1.993       .  S
O1557      C1564   1.243       .  A
O1557     Co1560   1.990       .  S
O1567      C1575   1.268   1_565  A
O1567     Co1587   1.973       .  S
O1568      C1576   1.257   1_455  A
O1568     Co1588   1.966       .  S
O1569      C1577   1.265       .  A
O1569     Co1589   2.023       .  S
O1570      C1578   1.304       .  A
O1570     Co1590   2.134       .  S
O1571      C1838   1.261       .  A
O1572     Co1848   1.865       .  S
O1573      C1576   1.275       .  A
O1573     Co1590   2.070       .  S
O1574      C1575   1.284       .  A
O1574     Co1589   2.052       .  S
C1575      C1635   1.482       .  S
C1576      C1624   1.498       .  S
C1577      O2093   1.261   1_545  A
C1577      C2175   1.470       .  S
O1579      C2114   1.289   1_545  A
O1580     Co2110   2.020   1_545  S
O1581      C1594   1.244       .  A
O1581     Co1589   1.963       .  S
O1582      C1595   1.267       .  A
O1582     Co1590   1.981       .  S
O1583      C1595   1.277       .  A
O1583     Co1588   2.010   1_655  S
O1584      C1594   1.244       .  A
O1584     Co1587   1.932   1_545  S
O1585      C1592   1.278       .  A
O1585     Co1590   1.934       .  S
O1586      C1593   1.254       .  A
O1586     Co1589   1.943       .  S
Co1587     O2094   1.865       .  S
Co1587     O2113   1.958   1_565  S
Co1588     O1841   2.020       .  S
Co1589     O2113   2.070       .  S
O1591     Co1848   1.958       .  S
O1591     Co1850   2.070       .  S
C1592      O1840   1.289       .  A
C1592      C1894   1.474       .  S
C1594      C1604   1.418       .  S
C1595      C1650   1.468       .  S
O1596      C1604   1.248       .  A
O1596     Co1616   1.935   1_554  S
O1597      C1605   1.278       .  A
O1597     Co1617   2.017   1_655  S
O1598      C1606   1.251       .  A
O1598     Co1618   1.940       .  S
O1599      C1607   1.279       .  A
O1599     Co1619   1.927       .  S
O1600     Co1791   2.031   1_554  S
O1601      C1781   1.287   1_554  A
O1602      C1605   1.277       .  A
O1602     Co1619   1.999       .  S
O1603      C1604   1.248       .  A
O1603     Co1618   1.964       .  S
C1605      C1636   1.473       .  S
C1607      O1688   1.287       .  A
C1607      C1739   1.477       .  S
O1608     Co1703   1.846       .  S
O1609      C1709   1.256       .  A
O1610      C1623   1.274       .  A
O1610     Co1618   2.022       .  S
O1611      C1624   1.272       .  A
O1611     Co1619   2.063       .  S
O1612      C1624   1.258   1_455  A
O1612     Co1617   1.971       .  S
O1613      C1623   1.265   1_556  A
O1613     Co1616   1.969       .  S
O1614      C1621   1.305       .  A
O1614     Co1619   2.142       .  S
O1615      C1622   1.271       .  A
O1615     Co1618   2.031       .  S
Co1616     O1782   1.847       .  S
Co1617     O1687   2.031       .  S
Co1617     O1620   1.980   1_455  S
Co1619     O1620   2.054       .  S
C1622      O1783   1.256   1_554  A
C1622      C1808   1.460   1_554  S
C1623      C1651   1.459       .  S
O1625      C1633   1.275       .  A
O1625     Co1645   1.959       .  S
O1626      C1634   1.250       .  A
O1626     Co1646   1.955       .  S
O1627      C1635   1.271       .  A
O1627     Co1647   2.032       .  S
O1628      C1636   1.253       .  A
O1628     Co1648   1.970       .  S
O1629      C1896   1.262       .  A
O1629     Co1820   1.979       .  S
O1630      C1810   1.265       .  A
O1630     Co1906   2.023       .  S
O1631      C1634   1.262       .  A
O1631     Co1648   2.009       .  S
O1632      C1633   1.285       .  A
O1632     Co1647   2.132       .  S
C1633      C2114   1.474   1_545  S
C1634      C1709   1.460       .  S
C1635      O2151   1.262   1_545  A
C1636      O1717   1.265       .  A
O1637      C2172   1.262   1_545  A
O1637     Co1732   1.988       .  S
O1638      C1738   1.247       .  A
O1638     Co2168   1.976       .  S
O1639      C1652   1.260   1_556  A
O1639     Co1647   2.050   1_556  S
O1640      C1653   1.260       .  A
O1640     Co1648   1.995       .  S
O1641      C1653   1.265       .  A
O1641     Co1646   1.993       .  S
O1642      C1652   1.279       .  A
O1642     Co1645   2.027       .  S
O1643      C1650   1.265       .  A
O1643     Co1648   1.993       .  S
O1644      C1651   1.243       .  A
O1644     Co1647   1.990       .  S
Co1645     O2152   2.023   1_545  S
Co1645     O1811   1.988   1_554  S
Co1645     O1823   1.990   1_544  S
Co1646     O1716   1.979       .  S
Co1646     O1899   1.976       .  S
Co1646     O1910   2.090       .  S
Co1647     O1823   2.182   1_544  S
Co1648     O1910   2.122       .  S
O1649     Co1732   1.990   1_565  S
O1649     Co2168   2.090   1_565  S
O1649     Co1734   2.182   1_565  S
O1649     Co2170   2.122       .  S
C1650      O1898   1.262       .  A
C1651      O1812   1.247       .  A
C1652      C1781   1.477   1_554  S
C1653      C1838   1.470       .  S
O1654      C1662   1.268   1_565  A
O1654     Co1674   1.973       .  S
O1655      C1663   1.257   1_455  A
O1655     Co1675   1.966       .  S
O1656      C1664   1.265       .  A
O1656     Co1676   2.023       .  S
O1657      C1665   1.304       .  A
O1657     Co1677   2.134       .  S
O1658      C1925   1.261       .  A
O1659     Co1935   1.866       .  S
O1660      C1663   1.275       .  A
O1660     Co1677   2.070       .  S
O1661      C1662   1.284       .  A
O1661     Co1676   2.052       .  S
C1662      C1722   1.482       .  S
C1663      C1711   1.498       .  S
C1664      O2180   1.261   1_545  A
C1664      C2262   1.471       .  S
O1666      C2201   1.289   1_545  A
O1667     Co2197   2.020   1_545  S
O1668      C1681   1.244       .  A
O1668     Co1676   1.963       .  S
O1669      C1682   1.267       .  A
O1669     Co1677   1.981       .  S
O1670      C1682   1.277       .  A
O1670     Co1675   2.010   1_655  S
O1671      C1681   1.244       .  A
O1671     Co1674   1.931   1_545  S
O1672      C1679   1.278       .  A
O1672     Co1677   1.935       .  S
O1673      C1680   1.254       .  A
O1673     Co1676   1.943       .  S
Co1674     O2181   1.866       .  S
Co1674     O2200   1.958   1_565  S
Co1675     O1928   2.020       .  S
Co1676     O2200   2.070       .  S
O1678     Co1935   1.958       .  S
O1678     Co1937   2.070       .  S
C1679      O1927   1.289       .  A
C1679      C1981   1.474       .  S
C1681      C1691   1.418       .  S
C1682      C1737   1.468       .  S
O1683      C1691   1.248       .  A
O1683     Co1703   1.935       .  S
O1684      C1692   1.278       .  A
O1684     Co1704   2.016   1_655  S
O1685      C1693   1.251       .  A
O1685     Co1705   1.940       .  S
O1686      C1694   1.279       .  A
O1686     Co1706   1.927       .  S
O1689      C1692   1.277       .  A
O1689     Co1706   1.999       .  S
O1690      C1691   1.248       .  A
O1690     Co1705   1.964       .  S
C1692      C1723   1.473       .  S
C1694      O1775   1.287       .  A
C1694      C1826   1.477       .  S
O1695     Co1790   1.847       .  S
O1696      C1796   1.256       .  A
O1697      C1710   1.274       .  A
O1697     Co1705   2.022       .  S
O1698      C1711   1.272       .  A
O1698     Co1706   2.063       .  S
O1699      C1711   1.258   1_455  A
O1699     Co1704   1.971       .  S
O1700      C1710   1.265       .  A
O1700     Co1703   1.969       .  S
O1701      C1708   1.305       .  A
O1701     Co1706   2.142       .  S
O1702      C1709   1.271       .  A
O1702     Co1705   2.031       .  S
Co1704     O1774   2.031       .  S
Co1704     O1707   1.980   1_455  S
Co1706     O1707   2.054       .  S
C1710      C1738   1.459       .  S
O1712      C1720   1.275       .  A
O1712     Co1732   1.959       .  S
O1713      C1721   1.250       .  A
O1713     Co1733   1.956       .  S
O1714      C1722   1.271       .  A
O1714     Co1734   2.032       .  S
O1715      C1723   1.252       .  A
O1715     Co1735   1.969       .  S
O1716      C1983   1.262       .  A
O1717     Co1993   2.023       .  S
O1718      C1721   1.262       .  A
O1718     Co1735   2.009       .  S
O1719      C1720   1.285       .  A
O1719     Co1734   2.132       .  S
C1720      C2201   1.474   1_545  S
C1721      C1796   1.460       .  S
C1722      O2238   1.262   1_545  A
C1723      O1804   1.265       .  A
O1724      C2259   1.262   1_545  A
O1724     Co1819   1.988       .  S
O1725      C1825   1.247       .  A
O1725     Co2255   1.976       .  S
O1726      C1739   1.260       .  A
O1726     Co1734   2.050       .  S
O1727      C1740   1.260       .  A
O1727     Co1735   1.995       .  S
O1728      C1740   1.265       .  A
O1728     Co1733   1.994       .  S
O1729      C1739   1.279       .  A
O1729     Co1732   2.027       .  S
O1730      C1737   1.265       .  A
O1730     Co1735   1.993       .  S
O1731      C1738   1.243       .  A
O1731     Co1734   1.990       .  S
Co1732     O2239   2.023   1_545  S
Co1733     O1803   1.979       .  S
Co1733     O1986   1.976       .  S
Co1733     O1997   2.090       .  S
Co1735     O1997   2.123       .  S
O1736     Co1819   1.990   1_565  S
O1736     Co2255   2.090   1_565  S
O1736     Co1821   2.183   1_565  S
O1736     Co2257   2.123       .  S
C1737      O1985   1.262       .  A
C1740      C1925   1.471       .  S
O1741      C1749   1.268   1_565  A
O1741     Co1761   1.972       .  S
O1742      C1750   1.257   1_455  A
O1742     Co1762   1.966       .  S
O1743      C1751   1.265       .  A
O1743     Co1763   2.023       .  S
O1744      C1752   1.304       .  A
O1744     Co1764   2.134       .  S
O1745      C2012   1.261       .  A
O1746     Co2022   1.865       .  S
O1747      C1750   1.275       .  A
O1747     Co1764   2.070       .  S
O1748      C1749   1.284       .  A
O1748     Co1763   2.052       .  S
C1749      C1809   1.483       .  S
C1750      C1798   1.498       .  S
C1751      O2267   1.261   1_545  A
C1751      C2349   1.471       .  S
O1753      C2288   1.289   1_545  A
O1754     Co2284   2.020   1_545  S
O1755      C1768   1.244       .  A
O1755     Co1763   1.963       .  S
O1756      C1769   1.267       .  A
O1756     Co1764   1.981       .  S
O1757      C1769   1.277       .  A
O1757     Co1762   2.010   1_655  S
O1758      C1768   1.244       .  A
O1758     Co1761   1.932   1_545  S
O1759      C1766   1.278       .  A
O1759     Co1764   1.935       .  S
O1760      C1767   1.254       .  A
O1760     Co1763   1.943       .  S
Co1761     O2268   1.865       .  S
Co1761     O2287   1.958   1_565  S
Co1762     O2015   2.020       .  S
Co1763     O2287   2.070       .  S
O1765     Co2022   1.958       .  S
O1765     Co2024   2.071       .  S
C1766      O2014   1.289       .  A
C1766      C2068   1.474       .  S
C1768      C1778   1.418       .  S
C1769      C1824   1.469       .  S
O1770      C1778   1.248       .  A
O1770     Co1790   1.935       .  S
O1771      C1779   1.278       .  A
O1771     Co1791   2.017   1_655  S
O1772      C1780   1.251       .  A
O1772     Co1792   1.940       .  S
O1773      C1781   1.279       .  A
O1773     Co1793   1.927       .  S
O1776      C1779   1.277   1_554  A
O1776     Co1793   1.999   1_554  S
O1777      C1778   1.248       .  A
O1777     Co1792   1.964       .  S
C1779      C1810   1.473   1_556  S
O1784      C1797   1.274       .  A
O1784     Co1792   2.022       .  S
O1785      C1798   1.272       .  A
O1785     Co1793   2.063       .  S
O1786      C1798   1.258   1_455  A
O1786     Co1791   1.971       .  S
O1787      C1797   1.265       .  A
O1787     Co1790   1.969       .  S
O1788      C1795   1.305       .  A
O1788     Co1793   2.142       .  S
O1789      C1796   1.271       .  A
O1789     Co1792   2.031       .  S
Co1791     O1794   1.980   1_456  S
Co1793     O1794   2.054   1_556  S
C1797      C1825   1.459       .  S
O1799      C1807   1.275       .  A
O1799     Co1819   1.959       .  S
O1800      C1808   1.250       .  A
O1800     Co1820   1.955   1_556  S
O1801      C1809   1.271       .  A
O1801     Co1821   2.032       .  S
O1802      C1810   1.252   1_556  A
O1802     Co1822   1.970       .  S
O1803      C2070   1.262       .  A
O1804     Co2080   2.023       .  S
O1805      C1808   1.262       .  A
O1805     Co1822   2.009       .  S
O1806      C1807   1.285       .  A
O1806     Co1821   2.132       .  S
C1807      C2288   1.474   1_545  S
C1809      O2325   1.262   1_545  A
O1811      C2346   1.262   1_545  A
O1812     Co2342   1.976       .  S
O1813      C1826   1.260       .  A
O1813     Co1821   2.050       .  S
O1814      C1827   1.260       .  A
O1814     Co1822   1.995       .  S
O1815      C1827   1.265       .  A
O1815     Co1820   1.994   1_556  S
O1816      C1826   1.279       .  A
O1816     Co1819   2.027       .  S
O1817      C1824   1.265       .  A
O1817     Co1822   1.993       .  S
O1818      C1825   1.243       .  A
O1818     Co1821   1.990       .  S
Co1819     O2326   2.023   1_545  S
Co1820     O2073   1.976       .  S
Co1820     O2084   2.090   1_554  S
Co1822     O2084   2.123       .  S
O1823     Co2342   2.090   1_566  S
O1823     Co2344   2.123       .  S
C1824      O2072   1.262       .  A
C1827      C2012   1.470       .  S
O1828      C1836   1.268       .  A
O1828     Co1848   1.972       .  S
O1829      C1837   1.257   1_455  A
O1829     Co1849   1.966       .  S
O1830      C1838   1.265       .  A
O1830     Co1850   2.023       .  S
O1831      C1839   1.304       .  A
O1831     Co1851   2.134       .  S
O1832      C2099   1.261       .  A
O1833     Co2109   1.865       .  S
O1834      C1837   1.276       .  A
O1834     Co1851   2.070       .  S
O1835      C1836   1.284       .  A
O1835     Co1850   2.052       .  S
C1836      C1896   1.482       .  S
C1837      C1885   1.498       .  S
O1842      C1855   1.244       .  A
O1842     Co1850   1.963       .  S
O1843      C1856   1.267       .  A
O1843     Co1851   1.981       .  S
O1844      C1856   1.277       .  A
O1844     Co1849   2.010   1_655  S
O1845      C1855   1.244       .  A
O1845     Co1848   1.932       .  S
O1846      C1853   1.278       .  A
O1846     Co1851   1.935       .  S
O1847      C1854   1.254       .  A
O1847     Co1850   1.943       .  S
Co1849     O2102   2.020       .  S
O1852     Co2109   1.958       .  S
O1852     Co2111   2.070       .  S
C1853      O2101   1.289       .  A
C1853      C2155   1.474       .  S
C1855      C1865   1.418       .  S
C1856      C1911   1.468       .  S
O1857      C1865   1.248       .  A
O1857     Co1877   1.935   1_554  S
O1858      C1866   1.278       .  A
O1858     Co1878   2.017   1_655  S
O1859      C1867   1.251       .  A
O1859     Co1879   1.940       .  S
O1860      C1868   1.279       .  A
O1860     Co1880   1.927       .  S
O1861     Co2052   2.031   1_554  S
O1862      C2042   1.287   1_554  A
O1863      C1866   1.277       .  A
O1863     Co1880   1.999       .  S
O1864      C1865   1.248       .  A
O1864     Co1879   1.964       .  S
C1866      C1897   1.474       .  S
C1868      O1949   1.287       .  A
C1868      C2000   1.477       .  S
O1869     Co1964   1.847       .  S
O1870      C1970   1.256       .  A
O1871      C1884   1.274       .  A
O1871     Co1879   2.022       .  S
O1872      C1885   1.272       .  A
O1872     Co1880   2.063       .  S
O1873      C1885   1.258   1_455  A
O1873     Co1878   1.971       .  S
O1874      C1884   1.265   1_556  A
O1874     Co1877   1.969       .  S
O1875      C1882   1.306       .  A
O1875     Co1880   2.143       .  S
O1876      C1883   1.271       .  A
O1876     Co1879   2.031       .  S
Co1877     O2043   1.847       .  S
Co1878     O1948   2.031       .  S
Co1878     O1881   1.980   1_455  S
Co1880     O1881   2.054       .  S
C1883      O2044   1.256   1_554  A
C1883      C2069   1.460   1_554  S
C1884      C1912   1.459       .  S
O1886      C1894   1.275       .  A
O1886     Co1906   1.959       .  S
O1887      C1895   1.250       .  A
O1887     Co1907   1.955       .  S
O1888      C1896   1.271       .  A
O1888     Co1908   2.032       .  S
O1889      C1897   1.253       .  A
O1889     Co1909   1.970       .  S
O1890      C2157   1.262       .  A
O1890     Co2081   1.979       .  S
O1891      C2071   1.265       .  A
O1891     Co2167   2.023       .  S
O1892      C1895   1.262       .  A
O1892     Co1909   2.009       .  S
O1893      C1894   1.285       .  A
O1893     Co1908   2.132       .  S
C1895      C1970   1.460       .  S
C1897      O1978   1.265       .  A
O1898     Co1993   1.988       .  S
O1899      C1999   1.247       .  A
O1900      C1913   1.260   1_556  A
O1900     Co1908   2.050   1_556  S
O1901      C1914   1.260       .  A
O1901     Co1909   1.995       .  S
O1902      C1914   1.265       .  A
O1902     Co1907   1.994       .  S
O1903      C1913   1.279       .  A
O1903     Co1906   2.027       .  S
O1904      C1911   1.265       .  A
O1904     Co1909   1.993       .  S
O1905      C1912   1.243       .  A
O1905     Co1908   1.990       .  S
Co1906     O2072   1.988   1_554  S
Co1906     O2084   1.990   1_554  S
Co1907     O1977   1.979       .  S
Co1907     O2160   1.976       .  S
Co1907     O2171   2.090       .  S
Co1908     O2084   2.183   1_554  S
Co1909     O2171   2.123       .  S
O1910     Co1993   1.990       .  S
O1910     Co1995   2.182       .  S
C1911      O2159   1.262       .  A
C1912      O2073   1.247       .  A
C1913      C2042   1.477   1_554  S
C1914      C2099   1.471       .  S
O1915      C1923   1.268       .  A
O1915     Co1935   1.973       .  S
O1916      C1924   1.257   1_455  A
O1916     Co1936   1.966       .  S
O1917      C1925   1.265       .  A
O1917     Co1937   2.023       .  S
O1918      C1926   1.304       .  A
O1918     Co1938   2.134       .  S
O1919      C2186   1.261       .  A
O1920     Co2196   1.865       .  S
O1921      C1924   1.276       .  A
O1921     Co1938   2.070       .  S
O1922      C1923   1.284       .  A
O1922     Co1937   2.052       .  S
C1923      C1983   1.482       .  S
C1924      C1972   1.498       .  S
O1929      C1942   1.244       .  A
O1929     Co1937   1.963       .  S
O1930      C1943   1.267       .  A
O1930     Co1938   1.981       .  S
O1931      C1943   1.277       .  A
O1931     Co1936   2.010   1_655  S
O1932      C1942   1.244       .  A
O1932     Co1935   1.932       .  S
O1933      C1940   1.278       .  A
O1933     Co1938   1.935       .  S
O1934      C1941   1.254       .  A
O1934     Co1937   1.943       .  S
Co1936     O2189   2.019       .  S
O1939     Co2196   1.958       .  S
O1939     Co2198   2.070       .  S
C1940      O2188   1.289       .  A
C1940      C2242   1.473       .  S
C1942      C1952   1.418       .  S
C1943      C1998   1.468       .  S
O1944      C1952   1.248       .  A
O1944     Co1964   1.935       .  S
O1945      C1953   1.278       .  A
O1945     Co1965   2.017   1_655  S
O1946      C1954   1.251       .  A
O1946     Co1966   1.940       .  S
O1947      C1955   1.279       .  A
O1947     Co1967   1.927       .  S
O1950      C1953   1.277       .  A
O1950     Co1967   1.999       .  S
O1951      C1952   1.248       .  A
O1951     Co1966   1.964       .  S
C1953      C1984   1.474       .  S
C1955      O2036   1.287       .  A
C1955      C2087   1.477       .  S
O1956     Co2051   1.847       .  S
O1957      C2057   1.256       .  A
O1958      C1971   1.274       .  A
O1958     Co1966   2.022       .  S
O1959      C1972   1.272       .  A
O1959     Co1967   2.063       .  S
O1960      C1972   1.258   1_455  A
O1960     Co1965   1.971       .  S
O1961      C1971   1.265       .  A
O1961     Co1964   1.969       .  S
O1962      C1969   1.306       .  A
O1962     Co1967   2.143       .  S
O1963      C1970   1.271       .  A
O1963     Co1966   2.030       .  S
Co1965     O2035   2.031       .  S
Co1965     O1968   1.980   1_455  S
Co1967     O1968   2.054       .  S
C1971      C1999   1.459       .  S
O1973      C1981   1.275       .  A
O1973     Co1993   1.959       .  S
O1974      C1982   1.250       .  A
O1974     Co1994   1.955       .  S
O1975      C1983   1.271       .  A
O1975     Co1995   2.032       .  S
O1976      C1984   1.253       .  A
O1976     Co1996   1.970       .  S
O1977      C2244   1.262       .  A
O1978     Co2254   2.023       .  S
O1979      C1982   1.262       .  A
O1979     Co1996   2.009       .  S
O1980      C1981   1.285       .  A
O1980     Co1995   2.132       .  S
C1982      C2057   1.460       .  S
C1984      O2065   1.265       .  A
O1985     Co2080   1.988       .  S
O1986      C2086   1.247       .  A
O1987      C2000   1.260       .  A
O1987     Co1995   2.050       .  S
O1988      C2001   1.260       .  A
O1988     Co1996   1.995       .  S
O1989      C2001   1.265       .  A
O1989     Co1994   1.994       .  S
O1990      C2000   1.279       .  A
O1990     Co1993   2.027       .  S
O1991      C1998   1.265       .  A
O1991     Co1996   1.993       .  S
O1992      C1999   1.243       .  A
O1992     Co1995   1.990       .  S
Co1994     O2064   1.979       .  S
Co1994     O2247   1.976       .  S
Co1994     O2258   2.090       .  S
Co1996     O2258   2.122       .  S
O1997     Co2080   1.990       .  S
O1997     Co2082   2.183       .  S
C1998      O2246   1.262       .  A
C2001      C2186   1.470       .  S
O2002      C2010   1.268       .  A
O2002     Co2022   1.972       .  S
O2003      C2011   1.257   1_455  A
O2003     Co2023   1.966       .  S
O2004      C2012   1.265       .  A
O2004     Co2024   2.023       .  S
O2005      C2013   1.304       .  A
O2005     Co2025   2.134       .  S
O2006      C2273   1.261       .  A
O2007     Co2283   1.866       .  S
O2008      C2011   1.276       .  A
O2008     Co2025   2.070       .  S
O2009      C2010   1.284       .  A
O2009     Co2024   2.052       .  S
C2010      C2070   1.482       .  S
C2011      C2059   1.498       .  S
O2016      C2029   1.244       .  A
O2016     Co2024   1.963       .  S
O2017      C2030   1.267       .  A
O2017     Co2025   1.981       .  S
O2018      C2030   1.277       .  A
O2018     Co2023   2.010   1_655  S
O2019      C2029   1.244       .  A
O2019     Co2022   1.932       .  S
O2020      C2027   1.278       .  A
O2020     Co2025   1.935       .  S
O2021      C2028   1.254       .  A
O2021     Co2024   1.943       .  S
Co2023     O2276   2.020       .  S
O2026     Co2283   1.958       .  S
O2026     Co2285   2.070       .  S
C2027      O2275   1.289       .  A
C2027      C2329   1.474       .  S
C2029      C2039   1.418       .  S
C2030      C2085   1.468       .  S
O2031      C2039   1.248       .  A
O2031     Co2051   1.936       .  S
O2032      C2040   1.278       .  A
O2032     Co2052   2.017   1_655  S
O2033      C2041   1.251       .  A
O2033     Co2053   1.940       .  S
O2034      C2042   1.279       .  A
O2034     Co2054   1.927       .  S
O2037      C2040   1.277   1_554  A
O2037     Co2054   1.999   1_554  S
O2038      C2039   1.248       .  A
O2038     Co2053   1.964       .  S
C2040      C2071   1.474   1_556  S
O2045      C2058   1.274       .  A
O2045     Co2053   2.022       .  S
O2046      C2059   1.272       .  A
O2046     Co2054   2.063       .  S
O2047      C2059   1.258   1_455  A
O2047     Co2052   1.971       .  S
O2048      C2058   1.265       .  A
O2048     Co2051   1.969       .  S
O2049      C2056   1.306       .  A
O2049     Co2054   2.143       .  S
O2050      C2057   1.271       .  A
O2050     Co2053   2.030       .  S
Co2052     O2055   1.980   1_456  S
Co2054     O2055   2.054   1_556  S
C2058      C2086   1.459       .  S
O2060      C2068   1.275       .  A
O2060     Co2080   1.959       .  S
O2061      C2069   1.250       .  A
O2061     Co2081   1.955   1_556  S
O2062      C2070   1.271       .  A
O2062     Co2082   2.032       .  S
O2063      C2071   1.253   1_556  A
O2063     Co2083   1.970       .  S
O2064      C2331   1.262       .  A
O2065     Co2341   2.023       .  S
O2066      C2069   1.262       .  A
O2066     Co2083   2.009       .  S
O2067      C2068   1.285       .  A
O2067     Co2082   2.132       .  S
O2074      C2087   1.260       .  A
O2074     Co2082   2.050       .  S
O2075      C2088   1.260       .  A
O2075     Co2083   1.995       .  S
O2076      C2088   1.265       .  A
O2076     Co2081   1.994   1_556  S
O2077      C2087   1.279       .  A
O2077     Co2080   2.027       .  S
O2078      C2085   1.265       .  A
O2078     Co2083   1.993       .  S
O2079      C2086   1.243       .  A
O2079     Co2082   1.990       .  S
Co2081     O2334   1.976       .  S
Co2081     O2345   2.090   1_554  S
Co2083     O2345   2.122       .  S
C2085      O2333   1.262       .  A
C2088      C2273   1.471       .  S
O2089      C2097   1.268       .  A
O2089     Co2109   1.973       .  S
O2090      C2098   1.257   1_455  A
O2090     Co2110   1.966       .  S
O2091      C2099   1.265       .  A
O2091     Co2111   2.023       .  S
O2092      C2100   1.304       .  A
O2092     Co2112   2.134       .  S
O2095      C2098   1.276       .  A
O2095     Co2112   2.070       .  S
O2096      C2097   1.284       .  A
O2096     Co2111   2.052       .  S
C2097      C2157   1.482       .  S
C2098      C2146   1.498       .  S
O2103      C2116   1.244       .  A
O2103     Co2111   1.963       .  S
O2104      C2117   1.267   1_545  A
O2104     Co2112   1.981   1_545  S
O2105      C2117   1.277       .  A
O2105     Co2110   2.010   1_655  S
O2106      C2116   1.244       .  A
O2106     Co2109   1.932       .  S
O2107      C2114   1.278       .  A
O2107     Co2112   1.935       .  S
O2108      C2115   1.254       .  A
O2108     Co2111   1.943       .  S
C2116      C2126   1.418       .  S
C2117      C2172   1.468       .  S
O2118      C2126   1.249       .  A
O2118     Co2138   1.935   1_554  S
O2119      C2127   1.278       .  A
O2119     Co2139   2.017   1_655  S
O2120      C2128   1.251       .  A
O2120     Co2140   1.940       .  S
O2121      C2129   1.279       .  A
O2121     Co2141   1.927       .  S
O2122     Co2313   2.031   1_554  S
O2123      C2303   1.287   1_554  A
O2124      C2127   1.277       .  A
O2124     Co2141   1.999       .  S
O2125      C2126   1.248       .  A
O2125     Co2140   1.964       .  S
C2127      C2158   1.474       .  S
C2129      O2210   1.287       .  A
C2129      C2261   1.477       .  S
O2130     Co2225   1.847       .  S
O2131      C2231   1.256       .  A
O2132      C2145   1.274       .  A
O2132     Co2140   2.022       .  S
O2133      C2146   1.272       .  A
O2133     Co2141   2.063       .  S
O2134      C2146   1.258   1_455  A
O2134     Co2139   1.971       .  S
O2135      C2145   1.265   1_556  A
O2135     Co2138   1.969       .  S
O2136      C2143   1.305       .  A
O2136     Co2141   2.143       .  S
O2137      C2144   1.271       .  A
O2137     Co2140   2.030       .  S
Co2138     O2304   1.847       .  S
Co2139     O2209   2.031       .  S
Co2139     O2142   1.980   1_455  S
Co2141     O2142   2.054       .  S
C2144      O2305   1.256   1_554  A
C2144      C2330   1.460   1_554  S
C2145      C2173   1.459       .  S
O2147      C2155   1.275       .  A
O2147     Co2167   1.959       .  S
O2148      C2156   1.250       .  A
O2148     Co2168   1.955   1_565  S
O2149      C2157   1.271       .  A
O2149     Co2169   2.032       .  S
O2150      C2158   1.253       .  A
O2150     Co2170   1.970       .  S
O2151     Co2342   1.979   1_565  S
O2152      C2332   1.265       .  A
O2153      C2156   1.262       .  A
O2153     Co2170   2.009       .  S
O2154      C2155   1.285       .  A
O2154     Co2169   2.132       .  S
C2156      C2231   1.460       .  S
C2158      O2239   1.265       .  A
O2159     Co2254   1.988       .  S
O2160      C2260   1.247       .  A
O2161      C2174   1.260   1_556  A
O2161     Co2169   2.050   1_556  S
O2162      C2175   1.260   1_565  A
O2162     Co2170   1.995       .  S
O2163      C2175   1.265       .  A
O2163     Co2168   1.993       .  S
O2164      C2174   1.279       .  A
O2164     Co2167   2.027       .  S
O2165      C2172   1.265       .  A
O2165     Co2170   1.993       .  S
O2166      C2173   1.243       .  A
O2166     Co2169   1.990       .  S
Co2167     O2333   1.988   1_554  S
Co2167     O2345   1.990   1_554  S
Co2168     O2238   1.979   1_545  S
Co2169     O2345   2.183   1_554  S
O2171     Co2254   1.990       .  S
O2171     Co2256   2.183       .  S
C2173      O2334   1.247       .  A
C2174      C2303   1.477   1_554  S
O2176      C2184   1.268       .  A
O2176     Co2196   1.973       .  S
O2177      C2185   1.257   1_455  A
O2177     Co2197   1.966       .  S
O2178      C2186   1.265       .  A
O2178     Co2198   2.023       .  S
O2179      C2187   1.304       .  A
O2179     Co2199   2.133       .  S
O2182      C2185   1.276       .  A
O2182     Co2199   2.070       .  S
O2183      C2184   1.284       .  A
O2183     Co2198   2.052       .  S
C2184      C2244   1.482       .  S
C2185      C2233   1.498       .  S
O2190      C2203   1.244       .  A
O2190     Co2198   1.963       .  S
O2191      C2204   1.267   1_545  A
O2191     Co2199   1.981   1_545  S
O2192      C2204   1.277       .  A
O2192     Co2197   2.010   1_655  S
O2193      C2203   1.244       .  A
O2193     Co2196   1.932       .  S
O2194      C2201   1.278       .  A
O2194     Co2199   1.935       .  S
O2195      C2202   1.254       .  A
O2195     Co2198   1.943       .  S
C2203      C2213   1.418       .  S
C2204      C2259   1.468       .  S
O2205      C2213   1.248       .  A
O2205     Co2225   1.935       .  S
O2206      C2214   1.278       .  A
O2206     Co2226   2.017   1_655  S
O2207      C2215   1.251       .  A
O2207     Co2227   1.940       .  S
O2208      C2216   1.279       .  A
O2208     Co2228   1.927       .  S
O2211      C2214   1.277       .  A
O2211     Co2228   1.999       .  S
O2212      C2213   1.248       .  A
O2212     Co2227   1.964       .  S
C2214      C2245   1.473       .  S
C2216      O2297   1.287       .  A
C2216      C2348   1.477       .  S
O2217     Co2312   1.846       .  S
O2218      C2318   1.256       .  A
O2219      C2232   1.274       .  A
O2219     Co2227   2.022       .  S
O2220      C2233   1.272       .  A
O2220     Co2228   2.063       .  S
O2221      C2233   1.258   1_455  A
O2221     Co2226   1.971       .  S
O2222      C2232   1.265       .  A
O2222     Co2225   1.969       .  S
O2223      C2230   1.305       .  A
O2223     Co2228   2.142       .  S
O2224      C2231   1.271       .  A
O2224     Co2227   2.030       .  S
Co2226     O2296   2.031       .  S
Co2226     O2229   1.980   1_455  S
Co2228     O2229   2.054       .  S
C2232      C2260   1.459       .  S
O2234      C2242   1.275       .  A
O2234     Co2254   1.959       .  S
O2235      C2243   1.250       .  A
O2235     Co2255   1.955   1_565  S
O2236      C2244   1.271       .  A
O2236     Co2256   2.032       .  S
O2237      C2245   1.253       .  A
O2237     Co2257   1.970       .  S
O2240      C2243   1.262       .  A
O2240     Co2257   2.009       .  S
O2241      C2242   1.285       .  A
O2241     Co2256   2.132       .  S
C2243      C2318   1.460       .  S
C2245      O2326   1.265       .  A
O2246     Co2341   1.988       .  S
O2247      C2347   1.247       .  A
O2248      C2261   1.260       .  A
O2248     Co2256   2.050       .  S
O2249      C2262   1.260   1_565  A
O2249     Co2257   1.995       .  S
O2250      C2262   1.265       .  A
O2250     Co2255   1.994       .  S
O2251      C2261   1.279       .  A
O2251     Co2254   2.027       .  S
O2252      C2259   1.265       .  A
O2252     Co2257   1.993       .  S
O2253      C2260   1.243       .  A
O2253     Co2256   1.990       .  S
Co2255     O2325   1.979   1_545  S
O2258     Co2341   1.990       .  S
O2258     Co2343   2.182       .  S
O2263      C2271   1.268       .  A
O2263     Co2283   1.973       .  S
O2264      C2272   1.257   1_455  A
O2264     Co2284   1.966       .  S
O2265      C2273   1.265       .  A
O2265     Co2285   2.023       .  S
O2266      C2274   1.304       .  A
O2266     Co2286   2.134       .  S
O2269      C2272   1.276       .  A
O2269     Co2286   2.070       .  S
O2270      C2271   1.284       .  A
O2270     Co2285   2.052       .  S
C2271      C2331   1.482       .  S
C2272      C2320   1.498       .  S
O2277      C2290   1.244       .  A
O2277     Co2285   1.963       .  S
O2278      C2291   1.267   1_545  A
O2278     Co2286   1.981   1_545  S
O2279      C2291   1.277       .  A
O2279     Co2284   2.010   1_655  S
O2280      C2290   1.244       .  A
O2280     Co2283   1.931       .  S
O2281      C2288   1.278       .  A
O2281     Co2286   1.935       .  S
O2282      C2289   1.254       .  A
O2282     Co2285   1.943       .  S
C2290      C2300   1.418       .  S
C2291      C2346   1.468       .  S
O2292      C2300   1.248       .  A
O2292     Co2312   1.935       .  S
O2293      C2301   1.278       .  A
O2293     Co2313   2.017   1_655  S
O2294      C2302   1.251       .  A
O2294     Co2314   1.940       .  S
O2295      C2303   1.279       .  A
O2295     Co2315   1.927       .  S
O2298      C2301   1.277   1_554  A
O2298     Co2315   1.999   1_554  S
O2299      C2300   1.248       .  A
O2299     Co2314   1.964       .  S
C2301      C2332   1.474   1_556  S
O2306      C2319   1.274       .  A
O2306     Co2314   2.022       .  S
O2307      C2320   1.272       .  A
O2307     Co2315   2.063       .  S
O2308      C2320   1.258   1_455  A
O2308     Co2313   1.971       .  S
O2309      C2319   1.265       .  A
O2309     Co2312   1.969       .  S
O2310      C2317   1.305       .  A
O2310     Co2315   2.142       .  S
O2311      C2318   1.271       .  A
O2311     Co2314   2.031       .  S
Co2313     O2316   1.980   1_456  S
Co2315     O2316   2.054   1_556  S
C2319      C2347   1.459       .  S
O2321      C2329   1.275       .  A
O2321     Co2341   1.959       .  S
O2322      C2330   1.250       .  A
O2322     Co2342   1.955   1_566  S
O2323      C2331   1.271       .  A
O2323     Co2343   2.032       .  S
O2324      C2332   1.253   1_556  A
O2324     Co2344   1.970       .  S
O2327      C2330   1.262       .  A
O2327     Co2344   2.009       .  S
O2328      C2329   1.285       .  A
O2328     Co2343   2.132       .  S
O2335      C2348   1.260       .  A
O2335     Co2343   2.050       .  S
O2336      C2349   1.260   1_565  A
O2336     Co2344   1.995       .  S
O2337      C2349   1.265       .  A
O2337     Co2342   1.994   1_556  S
O2338      C2348   1.279       .  A
O2338     Co2341   2.027       .  S
O2339      C2346   1.265       .  A
O2339     Co2344   1.993       .  S
O2340      C2347   1.243       .  A
O2340     Co2343   1.990       .  S
