geometry optimzed in LAMMPS
_audit_creation_date              2020-11-30 
_audit_creation_method            'lammps2cif' 
_symmetry_space_group_name_H-M    'P1' 
_symmetry_Int_Tables_number       1 
_symmetry_cell_setting            triclinic 
loop_ 
_symmetry_equiv_pos_as_xyz 
  x,y,z 
_cell_length_a                    35.80868408021688 
_cell_length_b                    35.70227395102552 
_cell_length_c                    37.758574931870626 
_cell_angle_alpha                 77.76398303533303 
_cell_angle_beta                  87.28755126478468 
_cell_angle_gamma                 73.41083227177859 
loop_ 
_atom_site_label 
_atom_site_type_symbol 
_atom_site_fract_x 
_atom_site_fract_y 
_atom_site_fract_z 
_atom_site_charge 
C1          C  0.50452789  0.07756515  0.33878459     0.76390
Tb2        Tb  0.07914756  0.46481475  0.24788750     1.80740
O3          O  0.47717701  0.06373425  0.33298721    -0.51630
O4          O  0.47652533  0.96173156  0.34728126    -0.59080
C5          C  0.03590347  0.05428478  0.25051711     0.92200
O6          O  0.12630167  0.99326147  0.21657792    -0.58610
Tb7        Tb  0.51757944  0.00182539  0.32434695     1.78060
O8          O  0.56225831  0.43728958  0.20027444    -0.59110
O9          O  0.53566220  0.43585078  0.33487389    -0.77910
O10         O  0.00933725  0.03752970  0.25882772    -0.77230
O11         O  0.08226332  0.99981797  0.32698216    -0.62500
C12         C  0.55518925  0.40496492  0.32357007     0.91790
O13         O  0.51956019  0.44783341  0.26074454    -0.74450
C14         C  0.53570973  0.46871195  0.18693746     0.75230
C15         C  0.45979323  0.48785096  0.36723199     0.76210
O16         O  0.04036235  0.05001349  0.33985492    -0.59690
O17         O  0.49548528  0.46958756  0.37244484    -0.51640
O18         O  0.12198281  0.45645348  0.29584391    -0.77700
O19         O  0.47770277  0.00199063  0.27650408    -0.61700
C20         C  0.48516138  0.97290366  0.26055310     0.90010
C21         C  0.11843571  0.47915560  0.31841411     0.91240
C22         C  0.14317069  0.46649797  0.20119738     0.75580
O23         O  0.53508595  0.49819037  0.20103258    -0.51030
O24         O  0.13198654  0.43525750  0.21197075    -0.52180
O25         O  0.06947554  0.40949607  0.29375679    -0.65030
O26         O  0.06974937  0.03153657  0.24793473    -0.66170
C27         C  0.46739119  0.31613499  0.10077807     0.76390
Tb28       Tb  0.45658141  0.23387216  0.98431757     1.80740
O29         O  0.99524851  0.29255750  0.08881122    -0.51630
O30         O  0.99643739  0.37166971  0.04528423    -0.59080
C31         C  0.43336029  0.25535050  0.06397706     0.92200
O32         O  0.42936519  0.18112396  0.00640233    -0.58610
Tb33       Tb  0.47773163  0.32147967  0.02685979     1.78060
O34         O  0.00524261  0.22135194  0.43964529    -0.59110
O35         O  0.50844068  0.30884112  0.46771934    -0.77910
O36         O  0.42759364  0.29040349  0.04503043    -0.77230
O37         O  0.41473701  0.33552088  0.00103785    -0.62500
C38         C  0.49623643  0.30478396  0.43797671     0.91790
O39         O  0.99298842  0.25294944  0.02020632    -0.74450
C40         C  0.02035204  0.18509792  0.45323831     0.75230
C41         C  0.98937320  0.39600902  0.01564936     0.76210
O42         O  0.44807526  0.34534220  0.07741124    -0.59690
O43         O  0.47366544  0.38510972  0.99085348    -0.51640
O44         O  0.40057810  0.29025912  0.97383514    -0.77700
O45         O  0.03707452  0.27050792  0.03923973    -0.61700
C46         C  0.02804918  0.24253928  0.03017097     0.90010
C47         C  0.39131186  0.32360005  0.98434549     0.91240
C48         C  0.40086984  0.19231602  0.48297366     0.75580
O49         O  0.00203466  0.17286297  0.98090113    -0.51030
O50         O  0.39901850  0.22521751  0.46153324    -0.52180
O51         O  0.46941109  0.28717627  0.43803835    -0.65030
O52         O  0.44908735  0.22596513  0.04890495    -0.66170
C53         C  0.12297200  0.08135154  0.02930608     0.76390
Tb54       Tb  0.25324412  0.04142350  0.47992226     1.80740
O55         O  0.10759435  0.05500255  0.02516441    -0.51630
O56         O  0.11432554  0.49431429  0.48001124    -0.59170
C57         C  0.17753212  0.08970313  0.95215781     0.92200
O58         O  0.26381233  0.10493019  0.96337154    -0.58610
Tb59       Tb  0.16376032  0.00847501  0.00783637     1.78060
O60         O  0.32086200  0.51149614  0.48379296    -0.59110
O61         O  0.21779798  0.45264143  0.50268402    -0.77910
O62         O  0.18503148  0.05625621  0.97297409    -0.77230
O63         O  0.21037037  0.97802930  0.05205242    -0.62500
C64         C  0.25472391  0.44765253  0.50267323     0.91790
O65         O  0.23088507  0.01399295  0.43278869    -0.74450
C66         C  0.32531610  0.01007612  0.45062342     0.75230
C67         C  0.10229626  0.47648480  0.00831894     0.76210
O68         O  0.15914896  0.07064555  0.02472938    -0.59690
O69         O  0.12044668  0.47429045  0.03690274    -0.51640
O70         O  0.23093353  0.03195010  0.04500670    -0.77700
O71         O  0.17377187  0.00023051  0.44797997    -0.61700
C72         C  0.20206540  0.00102988  0.42647096     0.90010
C73         C  0.22025936  0.00288801  0.06581994     0.91240
C74         C  0.28954618  0.10042797  0.98670407     0.75580
O75         O  0.29428248  0.02475892  0.43206614    -0.51030
O76         O  0.29445283  0.06797699  0.00953233    -0.52180
O77         O  0.26960134  0.47388603  0.50888884    -0.65030
O78         O  0.20833881  0.09905416  0.94507216    -0.66170
C79         C  0.32870683  0.34327338  0.01559326    -0.05840
C80         C  0.35009879  0.34782548  0.98343171     0.00080
C81         C  0.33323834  0.38658473  0.45223783    -0.08490
C82         C  0.30135847  0.41662542  0.46065938    -0.05870
C83         C  0.28224729  0.41153176  0.49388784     0.00070
C84         C  0.29478497  0.37313037  0.02160714    -0.08400
C85         C  0.27282440  0.36803474  0.05672981     0.61980
H86         H  0.34018012  0.31731453  0.03687885     0.12670
H87         H  0.29133491  0.44460516  0.44128590     0.12690
C88         C  0.35002871  0.39030855  0.41472259     0.62210
F89         F  0.28836127  0.33091904  0.07882934    -0.22950
F90         F  0.23433448  0.37182179  0.04921283    -0.20280
F91         F  0.27432407  0.39698224  0.07537072    -0.19960
F92         F  0.35423495  0.35527604  0.40280342    -0.20010
F93         F  0.38593756  0.39733428  0.41543940    -0.20330
F94         F  0.32562643  0.42096153  0.39039987    -0.23010
C95         C  0.35153865  0.17291442  0.45239403    -0.05840
C96         C  0.37077150  0.17005253  0.98640612     0.00080
C97         C  0.36058120  0.14752664  0.01934455    -0.08490
C98         C  0.33258162  0.12684591  0.01831137    -0.05870
C99         C  0.31422775  0.12800094  0.98587717     0.00070
C100        C  0.32387501  0.15187256  0.45116979    -0.08400
C101        C  0.30609450  0.15406420  0.41475470     0.61980
H102        H  0.35895827  0.19106714  0.42781628     0.12670
H103        H  0.32538120  0.10867794  0.04299751     0.12690
C104        C  0.37857888  0.14546084  0.05567541     0.62210
F105        F  0.32042399  0.17766512  0.38663575    -0.22950
F106        F  0.26614511  0.17035077  0.41533927    -0.20280
F107        F  0.31464997  0.11618516  0.40737481    -0.19960
F108        F  0.37492455  0.18364003  0.06067094    -0.20010
F109        F  0.41755500  0.12418787  0.05685406    -0.20330
F110        F  0.36050182  0.12665865  0.08437142    -0.23010
C111        C  0.03876783  0.46930860  0.03149663    -0.05840
C112        C  0.06953663  0.46033327  0.00761513     0.00080
C113        C  0.06871630  0.43616427  0.48362816    -0.08490
C114        C  0.03571680  0.42347023  0.98101818    -0.05870
C115        C  0.00691334  0.42866009  0.00723859     0.00070
C116        C  0.00783456  0.45237448  0.03269663    -0.08400
C117        C  0.47766404  0.45903003  0.06094842     0.61980
H118        H  0.03978770  0.48806321  0.05037018     0.12670
H119        H  0.03506767  0.40445510  0.46285943     0.12690
C120        C  0.10542645  0.41742965  0.46471900     0.62210
F121        F  0.96141305  0.99894421  0.05979524    -0.22950
F122        F  0.49615210  0.44172501  0.09415743    -0.20280
F123        F  0.45216923  0.43266444  0.55789752    -0.19960
F124        F  0.13754553  0.40524047  0.98735014    -0.20010
F125        F  0.11143761  0.44431135  0.43436185    -0.20330
F126        F  0.10276323  0.38334192  0.45462384    -0.23010
C127        C  0.10700105  0.09676038  0.94524280    -0.05840
C128        C  0.13716371  0.11527960  0.94092525     0.00080
C129        C  0.12695590  0.15769278  0.42915103    -0.08490
C130        C  0.08750283  0.17978871  0.43064215    -0.05870
C131        C  0.05819108  0.16083618  0.44167286     0.00070
C132        C  0.06757531  0.11869938  0.94614129    -0.08400
C133        C  0.03612210  0.09722316  0.95106249     0.61980
H134        H  0.11465592  0.06461143  0.95042336     0.12670
H135        H  0.07974677  0.21208226  0.42575858     0.12690
C136        C  0.15747882  0.17949482  0.41675629     0.62210
F137        F  0.05041940  0.05841187  0.94605344    -0.22950
F138        F  0.00605806  0.11744522  0.42539040    -0.20280
F139        F  0.02118890  0.09588363  0.98552945    -0.19960
F140        F  0.17816007  0.16452588  0.38849099    -0.20010
F141        F  0.18289391  0.17446783  0.94584879    -0.20330
F142        F  0.14082544  0.22008168  0.40454313    -0.23010
C143        C  0.36050505  0.48752944  0.39919576    -0.05840
C144        C  0.36340060  0.99427193  0.43486700     0.00080
C145        C  0.39890330  0.99377166  0.45026571    -0.08490
C146        C  0.43344147  0.98076551  0.43190806    -0.05870
C147        C  0.42902624  0.48084528  0.39173657     0.00070
C148        C  0.39363067  0.47946538  0.37798497    -0.08400
C149        C  0.39051256  0.47153503  0.34034050     0.61980
H150        H  0.33262975  0.48906916  0.38814187     0.12670
H151        H  0.46082415  0.98108340  0.44267799     0.12690
C152        C  0.40036067  0.01099744  0.48348894     0.62210
F153        F  0.35701190  0.46089031  0.33617643    -0.22950
F154        F  0.42207633  0.44059511  0.33441077    -0.20280
F155        F  0.38961014  0.50547121  0.31432803    -0.19960
F156        F  0.39004817  0.98585981  0.01196619    -0.20010
F157        F  0.37618493  0.04961731  0.47813875    -0.20330
F158        F  0.43741752  0.01267476  0.49015600    -0.23010
C159        C  0.18881743  0.01703426  0.36018870    -0.05840
C160        C  0.19821989  0.98781104  0.39223593     0.00080
C161        C  0.19254595  0.45082553  0.39280726    -0.08490
C162        C  0.16933552  0.44772700  0.36522542    -0.05870
C163        C  0.15052760  0.97960634  0.33851646     0.00070
C164        C  0.16687261  0.01225397  0.33215434    -0.08400
C165        C  0.16605404  0.03942957  0.29543656     0.61980
H166        H  0.19702639  0.04444167  0.35764616     0.12670
H167        H  0.16240746  0.42024432  0.36561979     0.12690
C168        C  0.21074205  0.41337161  0.42070083     0.62210
F169        F  0.20367802  0.03298968  0.28257081    -0.22950
F170        F  0.15238427  0.07887570  0.29827324    -0.20280
F171        F  0.14351179  0.03218368  0.27045669    -0.19960
F172        F  0.19834792  0.38116612  0.41652383    -0.20010
F173        F  0.20153630  0.41918062  0.45518390    -0.20330
F174        F  0.25052085  0.40325044  0.41654675    -0.23010
C175        C  0.16485304  0.00726629  0.10445217    -0.05840
C176        C  0.20491565  0.00309731  0.10329407     0.00080
C177        C  0.22542799  0.48519317  0.13582074    -0.08490
C178        C  0.20565832  0.47360411  0.16833391    -0.05870
C179        C  0.16590196  0.47475064  0.16763514     0.00070
C180        C  0.14670245  0.99096263  0.13476199    -0.08400
C181        C  0.10524614  0.98987579  0.13097960     0.61980
H182        H  0.14857620  0.01853793  0.07969438     0.12670
H183        H  0.22125029  0.46254736  0.19403350     0.12690
C184        C  0.26900949  0.47885975  0.13613205     0.62210
F185        F  0.09116382  0.00304819  0.09579298    -0.22950
F186        F  0.08176393  0.01423475  0.15183307    -0.20280
F187        F  0.10176299  0.45012552  0.14223281    -0.19960
F188        F  0.27931575  0.01369037  0.12486799    -0.20010
F189        F  0.28659489  0.45349873  0.11332640    -0.20330
F190        F  0.28500866  0.46218554  0.17052473    -0.23010
C191        C  0.49011842  0.43385459  0.18152731    -0.05840
C192        C  0.50145775  0.46832799  0.16624886     0.00080
C193        C  0.47067868  0.50351688  0.16593067    -0.08490
C194        C  0.44766980  0.00803690  0.20483569    -0.05870
C195        C  0.45833388  0.97225177  0.23162864     0.00070
C196        C  0.46944849  0.43453515  0.21433712    -0.08400
C197        C  0.46204310  0.39713883  0.23627543     0.61980
H198        H  0.50392835  0.40578990  0.17346284     0.12670
H199        H  0.43269824  0.03627126  0.21208832     0.12690
C200        C  0.96646761  0.03845452  0.13654751     0.62210
F201        F  0.44062084  0.38273525  0.21561321    -0.22950
F202        F  0.44121275  0.40482424  0.26699040    -0.20280
F203        F  0.49708775  0.36852364  0.24633829    -0.19960
F204        F  0.92898344  0.05100219  0.12241521    -0.20010
F205        F  0.98337890  0.53480247  0.11123084    -0.20330
F206        F  0.97367880  0.06882732  0.14996721    -0.23010
C207        C  0.47580414  0.13561212  0.29443168    -0.05840
C208        C  0.50367435  0.11982671  0.32265313     0.00080
C209        C  0.04630815  0.12114960  0.30551021    -0.08490
C210        C  0.05764352  0.10487212  0.27406897    -0.05870
C211        C  0.02883149  0.09644473  0.25496589     0.00070
C212        C  0.48561481  0.12099534  0.26217728    -0.08400
C213        C  0.45355660  0.12374907  0.23653517     0.61980
H214        H  0.44543513  0.14747273  0.30073124     0.12670
H215        H  0.08807154  0.09345777  0.26841640     0.12690
C216        C  0.07573652  0.12525339  0.33054128     0.62210
F217        F  0.43270868  0.16333497  0.22493766    -0.22950
F218        F  0.42869136  0.10263598  0.25399476    -0.20280
F219        F  0.46863980  0.10832353  0.20666520    -0.19960
F220        F  0.09365459  0.59091139  0.35070289    -0.20010
F221        F  0.05708796  0.14575221  0.35663290    -0.20330
F222        F  0.09957883  0.14633445  0.31104329    -0.23010
C223        C  0.51328403  0.35893571  0.34077517    -0.05840
C224        C  0.54901372  0.36672200  0.34531122     0.00080
C225        C  0.07306613  0.35016417  0.38305851    -0.08490
C226        C  0.05487013  0.32950405  0.41158822    -0.05870
C227        C  0.51546229  0.32070885  0.40333430     0.00070
C228        C  0.49698527  0.33478395  0.36851936    -0.08400
C229        C  0.45984664  0.32553943  0.36073482     0.61980
H230        H  0.49687028  0.37417474  0.31602792     0.12670
H231        H  0.06951823  0.31819290  0.43762816     0.12690
C232        C  0.11483985  0.35014107  0.38684495     0.62210
F233        F  0.43046051  0.34200003  0.38249786    -0.22950
F234        F  0.46607377  0.28459021  0.36740373    -0.20280
F235        F  0.44765923  0.34066975  0.32501211    -0.19960
F236        F  0.11595529  0.38811747  0.38765802    -0.20010
F237        F  0.13580606  0.33818688  0.35748416    -0.20330
F238        F  0.13252311  0.32432449  0.41806238    -0.23010
C239        C  0.96602802  0.25814736  0.14821576    -0.05840
C240        C  0.44978896  0.30107401  0.13555952     0.00080
C241        C  0.40902920  0.30940190  0.13121540    -0.08490
C242        C  0.39657634  0.28437796  0.11266117    -0.05870
C243        C  0.42502100  0.25114861  0.10363970     0.00070
C244        C  0.95540442  0.23315592  0.12838650    -0.08400
C245        C  0.98084577  0.19133597  0.13095205     0.61980
H246        H  0.99340111  0.24764627  0.16319331     0.12670
H247        H  0.36817396  0.29471073  0.09956580     0.12690
C248        C  0.38154638  0.34714522  0.13965611     0.62210
F249        F  0.98589418  0.17206909  0.16688177    -0.22950
F250        F  0.01690321  0.19223550  0.11672460    -0.20280
F251        F  0.96398063  0.17046546  0.11270461    -0.19960
F252        F  0.39100602  0.38037640  0.11982235    -0.20010
F253        F  0.38446106  0.34665376  0.17613327    -0.20330
F254        F  0.34330974  0.35026301  0.13166561    -0.23010
C255        C  0.11638977  0.15405644  0.02174156    -0.05840
C256        C  0.10075079  0.12185412  0.03488869     0.00080
C257        C  0.06329207  0.12976453  0.05043174    -0.08490
C258        C  0.04047308  0.16949718  0.04676736    -0.05870
C259        C  0.05494821  0.20180751  0.03169634     0.00070
C260        C  0.09443981  0.19403472  0.02091289    -0.08400
C261        C  0.11304313  0.22762642  0.50663002     0.61980
H262        H  0.14583680  0.14774666  0.51033304     0.12670
H263        H  0.01104134  0.17546713  0.05649212     0.12690
C264        C  0.04944693  0.09708480  0.07483577     0.62210
F265        F  0.15112024  0.21378366  0.49605672    -0.22950
F266        F  0.11336847  0.24827509  0.53365962    -0.20280
F267        F  0.09188153  0.25324753  0.47716743    -0.19960
F268        F  0.07772729  0.07733314  0.10113574    -0.20010
F269        F  0.04267476  0.07081734  0.05560036    -0.20330
F270        F  0.01536040  0.11198582  0.09221869    -0.23010
C271        C  0.50912492  0.07905625  0.83650858     0.76390
Tb272      Tb  0.07890325  0.46451824  0.74811315     1.80740
O273        O  0.48003516  0.06690924  0.83299304    -0.51630
O274        O  0.45313889  0.01188677  0.84010682    -0.59080
C275        C  0.03665300  0.05461357  0.75099765     0.92200
O276        O  0.12641198  0.99390359  0.71598365    -0.58610
Tb277      Tb  0.51608121  0.00516777  0.82030253     1.78060
O278        O  0.56197759  0.43658587  0.70056886    -0.59110
O279        O  0.53618878  0.43587666  0.83524563    -0.77910
O280        O  0.01011340  0.03785029  0.75923655    -0.77230
O281        O  0.08275458  0.99956999  0.82752087    -0.62500
C282        C  0.55594147  0.40494821  0.82412317     0.91790
O283        O  0.51929381  0.44779413  0.76133045    -0.74450
C284        C  0.53541629  0.46794031  0.68710258     0.75230
C285        C  0.45997797  0.48736905  0.86771402     0.76210
O286        O  0.03989492  0.05070930  0.84055288    -0.59690
O287        O  0.49533063  0.46737121  0.87128888    -0.51640
O288        O  0.12171115  0.45593320  0.79611960    -0.77700
O289        O  0.47963024  0.00262134  0.77127288    -0.61700
C290        C  0.48715848  0.97223406  0.75708626     0.90010
C291        C  0.11823744  0.47884441  0.81848451     0.91240
C292        C  0.14294622  0.46650121  0.70160174     0.75580
O293        O  0.53482351  0.49756710  0.70096861    -0.51030
O294        O  0.13187985  0.43516793  0.71223574    -0.52180
O295        O  0.06922113  0.40917457  0.79388266    -0.65030
O296        O  0.07050233  0.03187084  0.74841177    -0.66170
C297        C  0.46225339  0.31955688  0.59410766     0.76390
Tb298      Tb  0.45370938  0.23701754  0.48576686     1.80740
O299        O  0.99570151  0.29221424  0.58889390    -0.51630
O300        O  0.99679468  0.37147609  0.54552065    -0.59080
C301        C  0.42462929  0.26131211  0.56291215     0.92200
O302        O  0.43034951  0.18075598  0.50346676    -0.58610
Tb303      Tb  0.47289456  0.32042119  0.52029482     1.78060
O304        O  0.00515400  0.22107177  0.93999651    -0.59110
O305        O  0.50779638  0.31316123  0.96971232    -0.77910
O306        O  0.41985294  0.29579901  0.54324002    -0.77230
O307        O  0.41575054  0.34448007  0.48392604    -0.62500
C308        C  0.49859723  0.30505655  0.94020670     0.91790
O309        O  0.99338473  0.25298346  0.52012754    -0.74450
C310        C  0.02033209  0.18485935  0.95370380     0.75230
C311        C  0.98945123  0.39596919  0.51598827     0.76210
O312        O  0.44395424  0.34791339  0.56958002    -0.59690
O313        O  0.46880012  0.38695205  0.49186978    -0.51640
O314        O  0.39674532  0.29127132  0.47818994    -0.77700
O315        O  0.03755658  0.27039689  0.53914327    -0.61700
C316        C  0.02847119  0.24250004  0.52999782     0.90010
C317        C  0.38962793  0.32831185  0.47832157     0.91240
C318        C  0.40111923  0.19166168  0.98445183     0.75580
O319        O  0.00216518  0.17307281  0.48050487    -0.51030
O320        O  0.40140295  0.22255970  0.96077108    -0.52180
O321        O  0.47444037  0.28439671  0.93940667    -0.65030
O322        O  0.44282796  0.23145034  0.54949180    -0.66170
C323        C  0.12313674  0.08131747  0.52855467     0.76390
Tb324      Tb  0.25349561  0.04118816  0.98102313     1.80740
O325        O  0.10768307  0.05502272  0.52442547    -0.51630
O326        O  0.11535348  0.49319236  0.97969211    -0.59170
C327        C  0.17727022  0.08982972  0.45118392     0.92200
O328        O  0.26549066  0.10403121  0.46029330    -0.58610
Tb329      Tb  0.16373094  0.00845973  0.50694729     1.78060
O330        O  0.32050442  0.51235902  0.98371778    -0.59110
O331        O  0.21885414  0.45122786  0.00383087    -0.77910
O332        O  0.18477507  0.05637191  0.47198501    -0.77230
O333        O  0.21070026  0.97799834  0.55086564    -0.62500
C334        C  0.25587453  0.44617738  0.00197413     0.91790
O335        O  0.23123303  0.01374511  0.93385735    -0.74450
C336        C  0.32497662  0.01087735  0.95017085     0.75230
C337        C  0.10161969  0.47726674  0.50866816     0.76210
O338        O  0.15928713  0.07057693  0.52387928    -0.59690
O339        O  0.12003924  0.47483762  0.53716530    -0.51640
O340        O  0.23084132  0.03212415  0.54399180    -0.77700
O341        O  0.17394344  0.00031410  0.94884328    -0.61700
C342        C  0.20232017  0.00098839  0.92741332     0.90010
C343        C  0.22031126  0.00292756  0.56475055     0.91240
C344        C  0.28968880  0.10065491  0.48468141     0.75580
O345        O  0.29345701  0.02522897  0.93232880    -0.51030
O346        O  0.29273883  0.06947681  0.50883598    -0.52180
O347        O  0.27146911  0.47324135  0.00457484    -0.65030
O348        O  0.20805066  0.09919998  0.44404130    -0.66170
C349        C  0.32798095  0.34582529  0.51144782    -0.05840
C350        C  0.34874566  0.35253985  0.47919192     0.00080
C351        C  0.33543787  0.38103565  0.95534768    -0.08490
C352        C  0.30327780  0.41188304  0.96215868    -0.05870
C353        C  0.28315839  0.40871854  0.99502426     0.00070
C354        C  0.29420510  0.37485251  0.51898082    -0.08400
C355        C  0.27241407  0.36762055  0.55394794     0.61980
H356        H  0.33972560  0.31887201  0.53162058     0.12670
H357        H  0.29418008  0.43939865  0.94199096     0.12690
C358        C  0.35449577  0.38400511  0.91881233     0.62210
F359        F  0.28807530  0.32962983  0.57442906    -0.22950
F360        F  0.23392440  0.37179184  0.54608099    -0.20280
F361        F  0.27384565  0.39506676  0.57437575    -0.19960
F362        F  0.35952588  0.34871651  0.90712118    -0.20010
F363        F  0.39025389  0.39083597  0.92151033    -0.20330
F364        F  0.33162465  0.41449613  0.89325071    -0.23010
C365        C  0.35138560  0.17244204  0.95422318    -0.05840
C366        C  0.37124625  0.16997962  0.48451689     0.00080
C367        C  0.36166883  0.14670488  0.51726778    -0.08490
C368        C  0.33352544  0.12623032  0.51619420    -0.05870
C369        C  0.31472129  0.12795614  0.48381093     0.00070
C370        C  0.32360793  0.15150962  0.95314056    -0.08400
C371        C  0.30599785  0.15322032  0.91677875     0.61980
H372        H  0.35915721  0.19003202  0.92947209     0.12670
H373        H  0.32660571  0.10775032  0.54080942     0.12690
C374        C  0.38045470  0.14373320  0.55346612     0.62210
F375        F  0.32075055  0.17616652  0.88845059    -0.22950
F376        F  0.26609438  0.16994597  0.91703963    -0.20280
F377        F  0.31419673  0.11510375  0.91001462    -0.19960
F378        F  0.37673416  0.18159664  0.55932904    -0.20010
F379        F  0.41949185  0.12288645  0.55361363    -0.20330
F380        F  0.36320495  0.12393732  0.58217219    -0.23010
C381        C  0.03826504  0.46966068  0.53193702    -0.05840
C382        C  0.06903929  0.46087366  0.50803209     0.00080
C383        C  0.06901349  0.43568526  0.98320555    -0.08490
C384        C  0.03554673  0.42377300  0.48139883    -0.05870
C385        C  0.00674640  0.42877900  0.50763186     0.00070
C386        C  0.00750874  0.45248169  0.53314117    -0.08400
C387        C  0.48139565  0.44986202  0.56164185     0.61980
H388        H  0.03916426  0.48843573  0.55082857     0.12670
H389        H  0.03510021  0.40417285  0.96249956     0.12690
C390        C  0.10560553  0.41686861  0.96418813     0.62210
F391        F  0.96128401  0.99918825  0.55970935    -0.22950
F392        F  0.49987351  0.43184626  0.59476777    -0.20280
F393        F  0.44777590  0.44237713  0.05818954    -0.19960
F394        F  0.13724589  0.40588291  0.48801439    -0.20010
F395        F  0.11155404  0.44372040  0.93378171    -0.20330
F396        F  0.10276023  0.38282018  0.95414586    -0.23010
C397        C  0.10674241  0.09695123  0.44441740    -0.05840
C398        C  0.13693015  0.11543203  0.44003296     0.00080
C399        C  0.12712026  0.15754041  0.92999148    -0.08490
C400        C  0.08762224  0.17960004  0.93137109    -0.05870
C401        C  0.05831435  0.16061336  0.94232813     0.00070
C402        C  0.06735592  0.11893714  0.44542631    -0.08400
C403        C  0.03585058  0.09752797  0.45040749     0.61980
H404        H  0.11435647  0.06479810  0.44957015     0.12670
H405        H  0.07981316  0.21189802  0.92642912     0.12690
C406        C  0.15761769  0.17937393  0.91762333     0.62210
F407        F  0.05004728  0.05873805  0.44531537    -0.22950
F408        F  0.00639709  0.11704365  0.92595463    -0.20280
F409        F  0.02104032  0.09613371  0.48492235    -0.19960
F410        F  0.17839191  0.16435837  0.88942042    -0.20010
F411        F  0.18283715  0.17450380  0.44494113    -0.20330
F412        F  0.14093107  0.21994271  0.90533600    -0.23010
C413        C  0.36133075  0.48545757  0.90070530    -0.05840
C414        C  0.36272560  0.99602887  0.93342745     0.00080
C415        C  0.39866870  0.99558232  0.94822627    -0.08490
C416        C  0.43263029  0.98487247  0.92828015    -0.05870
C417        C  0.42957497  0.48031040  0.89264883     0.00070
C418        C  0.39460047  0.47708825  0.87961736    -0.08400
C419        C  0.39250456  0.46566963  0.84328201     0.61980
H420        H  0.33375272  0.48497745  0.89051832     0.12670
H421        H  0.46007855  0.98661769  0.93770444     0.12690
C422        C  0.40097358  0.01062525  0.98254786     0.62210
F423        F  0.35691934  0.45969960  0.83768846    -0.22950
F424        F  0.42131416  0.43063069  0.84209618    -0.20280
F425        F  0.39765405  0.49548647  0.81516960    -0.19960
F426        F  0.38876930  0.98779151  0.51367164    -0.20010
F427        F  0.37674984  0.04907298  0.97915592    -0.20330
F428        F  0.43821702  0.01182792  0.98916584    -0.23010
C429        C  0.18909020  0.01712082  0.86109977    -0.05840
C430        C  0.19847700  0.98785641  0.89312253     0.00080
C431        C  0.19261973  0.45078014  0.89259296    -0.08490
C432        C  0.16930120  0.44755792  0.86516674    -0.05870
C433        C  0.15100115  0.97964523  0.83916348     0.00070
C434        C  0.16727166  0.01234772  0.83295952    -0.08400
C435        C  0.16638621  0.03972860  0.79634179     0.61980
H436        H  0.19722960  0.04455467  0.85864889     0.12670
H437        H  0.16239692  0.42003070  0.86571676     0.12690
C438        C  0.21122602  0.41341745  0.92039925     0.62210
F439        F  0.20402440  0.03360506  0.78354883    -0.22950
F440        F  0.15244743  0.07909685  0.79937995    -0.20280
F441        F  0.14403397  0.03246569  0.77120474    -0.19960
F442        F  0.19916936  0.38098828  0.91629196    -0.20010
F443        F  0.20214746  0.41914067  0.95494278    -0.20330
F444        F  0.25097098  0.40377196  0.91599192    -0.23010
C445        C  0.16483762  0.00667435  0.60346047    -0.05840
C446        C  0.20480299  0.00299909  0.60222968     0.00080
C447        C  0.22517818  0.48507242  0.63621628    -0.08490
C448        C  0.20551793  0.47323382  0.66871267    -0.05870
C449        C  0.16560218  0.47502110  0.66808328     0.00070
C450        C  0.14670452  0.99080875  0.63401382    -0.08400
C451        C  0.10524458  0.98962255  0.63049712     0.61980
H452        H  0.14848135  0.01752641  0.57849583     0.12670
H453        H  0.22130888  0.46139473  0.69427435     0.12690
C454        C  0.26889858  0.47779410  0.63621348     0.62210
F455        F  0.09101406  0.00249455  0.59534537    -0.22950
F456        F  0.08183700  0.01421146  0.65120678    -0.20280
F457        F  0.10145135  0.45112604  0.64244518    -0.19960
F458        F  0.27890848  0.01459302  0.62323374    -0.20010
F459        F  0.28560558  0.45290347  0.61275885    -0.20330
F460        F  0.28515858  0.46007066  0.67036353    -0.23010
C461        C  0.48962206  0.43311695  0.68218801    -0.05840
C462        C  0.50109495  0.46741977  0.66654792     0.00080
C463        C  0.47042423  0.50274366  0.66603644    -0.08490
C464        C  0.45079969  0.00489433  0.70079842    -0.05870
C465        C  0.46046011  0.97012100  0.72872349     0.00070
C466        C  0.46914681  0.43416826  0.71508505    -0.08400
C467        C  0.46182112  0.39693676  0.73749569     0.61980
H468        H  0.50328247  0.40490292  0.67433904     0.12670
H469        H  0.43529782  0.03364868  0.70675982     0.12690
C470        C  0.96677254  0.03893161  0.63661900     0.62210
F471        F  0.43978010  0.38258277  0.71740638    -0.22950
F472        F  0.44168573  0.40482120  0.76850748    -0.20280
F473        F  0.49687957  0.36818962  0.74713897    -0.19960
F474        F  0.92919858  0.05143479  0.62269836    -0.20010
F475        F  0.98352991  0.53453241  0.61136886    -0.20330
F476        F  0.97410646  0.06936594  0.64984273    -0.23010
C477        C  0.48157919  0.13591604  0.79091214    -0.05840
C478        C  0.50944226  0.12067405  0.81915766     0.00080
C479        C  0.04624131  0.12161035  0.80615126    -0.08490
C480        C  0.05796499  0.10526241  0.77480507    -0.05870
C481        C  0.02941991  0.09680007  0.75540942     0.00070
C482        C  0.49082782  0.11960416  0.75945960    -0.08400
C483        C  0.45806080  0.12058888  0.73533691     0.61980
H484        H  0.45129872  0.14828333  0.79722262     0.12670
H485        H  0.08846135  0.09377490  0.76946633     0.12690
C486        C  0.07542531  0.12562819  0.83149317     0.62210
F487        F  0.43458222  0.15937724  0.72515381    -0.22950
F488        F  0.43577891  0.09707998  0.75389999    -0.20280
F489        F  0.47237026  0.10669474  0.70450276    -0.19960
F490        F  0.09373328  0.59051436  0.85060337    -0.20010
F491        F  0.05652083  0.14595628  0.85760041    -0.20330
F492        F  0.09934384  0.14681711  0.81229827    -0.23010
C493        C  0.51553884  0.35761446  0.84223094    -0.05840
C494        C  0.55063018  0.36664981  0.84652692     0.00080
C495        C  0.07282922  0.34964910  0.88302246    -0.08490
C496        C  0.05461120  0.32902274  0.91155990    -0.05870
C497        C  0.51771430  0.32120024  0.90554621     0.00070
C498        C  0.49967147  0.33357608  0.87043610    -0.08400
C499        C  0.46327042  0.32291621  0.86271528     0.61980
H500        H  0.49928881  0.37171168  0.81718733     0.12670
H501        H  0.06931239  0.31759758  0.93756395     0.12690
C502        C  0.11472792  0.34930814  0.88665190     0.62210
F503        F  0.43345773  0.33869968  0.88439110    -0.22950
F504        F  0.47073239  0.28182448  0.86950248    -0.20280
F505        F  0.45093776  0.33757148  0.82697204    -0.19960
F506        F  0.11622768  0.38722150  0.88723005    -0.20010
F507        F  0.13549444  0.33704428  0.85731361    -0.20330
F508        F  0.13236765  0.32353883  0.91790803    -0.23010
C509        C  0.96652687  0.25764816  0.64824464    -0.05840
C510        C  0.44439110  0.30844281  0.62994782     0.00080
C511        C  0.40339459  0.31850825  0.62636626    -0.08490
C512        C  0.38880851  0.29278593  0.61049285    -0.05870
C513        C  0.41584933  0.25813350  0.60242551     0.00070
C514        C  0.95589194  0.23275199  0.62831409    -0.08400
C515        C  0.98138490  0.19098496  0.63069967     0.61980
H516        H  0.99391776  0.24710132  0.66319577     0.12670
H517        H  0.36011217  0.30346637  0.59803132     0.12690
C518        C  0.37785061  0.35791256  0.63313275     0.62210
F519        F  0.98657435  0.17157918  0.66658102    -0.22950
F520        F  0.01738258  0.19201648  0.61639838    -0.20280
F521        F  0.96449407  0.17017108  0.61241068    -0.19960
F522        F  0.38812260  0.38925705  0.61063234    -0.20010
F523        F  0.38251800  0.35989860  0.66875695    -0.20330
F524        F  0.33895208  0.36200078  0.62701788    -0.23010
C525        C  0.11662811  0.15402469  0.52102540    -0.05840
C526        C  0.10100197  0.12181819  0.53421109     0.00080
C527        C  0.06362834  0.12970456  0.54990906    -0.08490
C528        C  0.04085134  0.16943675  0.54640355    -0.05870
C529        C  0.05531334  0.20176487  0.53133889     0.00070
C530        C  0.09473645  0.19399601  0.52034705    -0.08400
C531        C  0.11277593  0.22765671  0.00726617     0.61980
H532        H  0.14565880  0.14776735  0.01118771     0.12670
H533        H  0.01146623  0.17538143  0.55624077     0.12690
C534        C  0.04986178  0.09695627  0.57429103     0.62210
F535        F  0.15092017  0.21379753  0.99687381    -0.22950
F536        F  0.11291889  0.24837449  0.03428188    -0.20280
F537        F  0.09175871  0.25321806  0.97770219    -0.19960
F538        F  0.07834120  0.07696770  0.60035378    -0.20010
F539        F  0.04279586  0.07090030  0.55496829    -0.20330
F540        F  0.01597361  0.11179855  0.59196618    -0.23010
C541        C  0.50879466  0.57923471  0.33517956     0.76390
Tb542      Tb  0.08053444  0.96251785  0.24724646     1.80740
O543        O  0.47955959  0.56722872  0.33190910    -0.51630
O544        O  0.45238916  0.51509454  0.33933033    -0.59080
C545        C  0.03356379  0.55568383  0.25401485     0.92200
O546        O  0.12550493  0.49429543  0.21660933    -0.58610
Tb547      Tb  0.51511775  0.50557024  0.31872790     1.78060
O548        O  0.55863771  0.94167130  0.20032943    -0.59110
O549        O  0.55754293  0.93618547  0.34263071    -0.77910
O550        O  0.00781729  0.53829906  0.26459820    -0.77230
O551        O  0.08532179  0.49929679  0.32797555    -0.62500
C552        C  0.56071434  0.90702928  0.32719839     0.91790
O553        O  0.51899580  0.94798338  0.26480354    -0.74450
C554        C  0.53169115  0.97320350  0.18831274     0.75230
C555        C  0.46670961  0.97645289  0.37487911     0.76210
O556        O  0.03821655  0.55136849  0.34381981    -0.59690
O557        O  0.48542133  0.00009135  0.37918613    -0.51640
O558        O  0.12012124  0.95505636  0.29721015    -0.77700
O559        O  0.47845718  0.50340284  0.26962520    -0.61700
C560        C  0.48590005  0.47298492  0.25549427     0.90010
C561        C  0.11572951  0.97859866  0.31909184     0.91240
C562        C  0.14494039  0.96569674  0.20132417     0.75580
O563        O  0.53183270  0.00215194  0.20289065    -0.51030
O564        O  0.13457435  0.93395690  0.21194838    -0.52180
O565        O  0.07670305  0.90605559  0.29486628    -0.65030
O566        O  0.06728628  0.53373335  0.24941982    -0.66170
C567        C  0.46756511  0.81545498  0.10157915     0.76390
Tb568      Tb  0.45608003  0.73435072  0.98444450     1.80740
O569        O  0.99668114  0.79375704  0.08752106    -0.51630
O570        O  0.99836020  0.87138855  0.04327604    -0.59080
C571        C  0.43309932  0.75526160  0.06437235     0.92200
O572        O  0.42908666  0.68141358  0.00637302    -0.58610
Tb573      Tb  0.47734492  0.82153168  0.02753112     1.78060
O574        O  0.00521534  0.71878948  0.43932775    -0.59110
O575        O  0.50770700  0.81336448  0.47104044    -0.77910
O576        O  0.42723167  0.79041017  0.04561554    -0.77230
O577        O  0.41419374  0.83564680  0.00191538    -0.62500
C578        C  0.49822109  0.80662919  0.44102518     0.91790
O579        O  0.99406425  0.75275836  0.01905846    -0.74450
C580        C  0.02129136  0.68297272  0.45364858     0.75230
C581        C  0.99020550  0.89610242  0.01393443     0.76210
O582        O  0.44819228  0.84489932  0.07846543    -0.59690
O583        O  0.47314770  0.88540096  0.99199944    -0.51640
O584        O  0.40007678  0.79075957  0.97418178    -0.77700
O585        O  0.03810983  0.77023731  0.03826106    -0.61700
C586        C  0.02901162  0.74219362  0.02941355     0.90010
C587        C  0.39075442  0.82389227  0.98506121     0.91240
C588        C  0.40104857  0.69217201  0.48406393     0.75580
O589        O  0.00250301  0.67217794  0.98161220    -0.51030
O590        O  0.40112148  0.72305493  0.46025209    -0.52180
O591        O  0.47390421  0.78631520  0.43944096    -0.65030
O592        O  0.44882923  0.72604792  0.04908483    -0.66170
C593        C  0.12333857  0.58070385  0.02898437     0.76390
Tb594      Tb  0.25357240  0.54122220  0.48190964     1.80740
O595        O  0.10781294  0.55459477  0.02445726    -0.51630
O596        O  0.11475686  0.99456532  0.47898379    -0.59170
C597        C  0.17721548  0.58961253  0.95196426     0.92200
O598        O  0.26302761  0.60552875  0.96392191    -0.58610
Tb599      Tb  0.16407040  0.50786895  0.00730833     1.78060
O600        O  0.32029489  0.01060628  0.48367188    -0.59110
O601        O  0.21810449  0.95134554  0.50380726    -0.77910
O602        O  0.18483694  0.55613831  0.97271746    -0.77230
O603        O  0.21074211  0.47728161  0.05142443    -0.62500
C604        C  0.25512304  0.94613751  0.50130611     0.91790
O605        O  0.23170720  0.51383721  0.43421776    -0.74450
C606        C  0.32464786  0.51097238  0.45067646     0.75230
C607        C  0.10164305  0.97769074  0.00784721     0.76210
O608        O  0.15952530  0.56978587  0.02465572    -0.59690
O609        O  0.11948207  0.97522513  0.03670784    -0.51640
O610        O  0.23045234  0.53155590  0.04530029    -0.77700
O611        O  0.17412233  0.50058268  0.44829919    -0.61700
C612        C  0.20282262  0.50123315  0.42722276     0.90010
C613        C  0.21982763  0.50222183  0.06568260     0.91240
C614        C  0.28877558  0.60105132  0.98723755     0.75580
O615        O  0.29287128  0.52479899  0.43321306    -0.51030
O616        O  0.29378617  0.56853801  0.01000470    -0.52180
O617        O  0.27104459  0.97315370  0.50318775    -0.65030
O618        O  0.20789506  0.59929456  0.94522172    -0.66170
C619        C  0.32834413  0.84338030  0.01672942    -0.05840
C620        C  0.34947631  0.84795228  0.98439861     0.00080
C621        C  0.33465397  0.88075516  0.45498386    -0.08490
C622        C  0.30209085  0.91138419  0.46145634    -0.05870
C623        C  0.28213807  0.90850146  0.49445525     0.00070
C624        C  0.29427595  0.87305286  0.02279029    -0.08400
C625        C  0.27246438  0.86788030  0.05798174     0.61980
H626        H  0.34009419  0.81756153  0.03806677     0.12670
H627        H  0.29273787  0.93865728  0.44103845     0.12690
C628        C  0.35403644  0.88357513  0.41858931     0.62210
F629        F  0.28827930  0.83085698  0.08012907    -0.22950
F630        F  0.23402058  0.87134033  0.05059076    -0.20280
F631        F  0.27375803  0.89698046  0.07649943    -0.19960
F632        F  0.35907744  0.84828192  0.40690278    -0.20010
F633        F  0.38984877  0.89008418  0.42174012    -0.20330
F634        F  0.33161386  0.91418264  0.39278625    -0.23010
C635        C  0.35094089  0.67271394  0.45449434    -0.05840
C636        C  0.37024546  0.67049208  0.98673462     0.00080
C637        C  0.36052101  0.64749935  0.01962854    -0.08490
C638        C  0.33232017  0.62702670  0.01870175    -0.05870
C639        C  0.31346530  0.62864170  0.98639425     0.00070
C640        C  0.32322876  0.65158561  0.45383743    -0.08400
C641        C  0.30515782  0.65310227  0.41775551     0.61980
H642        H  0.35823659  0.69047883  0.42961790     0.12670
H643        H  0.32541703  0.60858031  0.04335076     0.12690
C644        C  0.37929663  0.64463511  0.05580152     0.62210
F645        F  0.31977125  0.67576470  0.38909535    -0.22950
F646        F  0.26530827  0.66999389  0.41833548    -0.20280
F647        F  0.31299377  0.61488691  0.41130112    -0.19960
F648        F  0.37580116  0.68253746  0.06144929    -0.20010
F649        F  0.41826605  0.62351434  0.05609869    -0.20330
F650        F  0.36184490  0.62517126  0.08457180    -0.23010
C651        C  0.03815749  0.96989900  0.03068086    -0.05840
C652        C  0.06877388  0.96178767  0.00648740     0.00080
C653        C  0.06784647  0.93801484  0.48113200    -0.08490
C654        C  0.03491222  0.92566248  0.97886133    -0.05870
C655        C  0.00658145  0.92959937  0.00555724     0.00070
C656        C  0.00741853  0.95274877  0.03151976    -0.08400
C657        C  0.47815010  0.95868077  0.06266686     0.61980
H658        H  0.03922130  0.98802153  0.05011742     0.12670
H659        H  0.03391415  0.90704210  0.45963761     0.12690
C660        C  0.10429779  0.91987606  0.46162655     0.62210
F661        F  0.96232938  0.49964251  0.06029829    -0.22950
F662        F  0.49681685  0.94156049  0.09583307    -0.20280
F663        F  0.44969703  0.94297981  0.55855898    -0.19960
F664        F  0.13651030  0.90761214  0.98442272    -0.20010
F665        F  0.10995478  0.94743260  0.43168318    -0.20330
F666        F  0.10143830  0.88629326  0.45077251    -0.23010
C667        C  0.10682494  0.59610746  0.94499400    -0.05840
C668        C  0.13681565  0.61487628  0.94053952     0.00080
C669        C  0.12761665  0.65683979  0.42924403    -0.08490
C670        C  0.08807312  0.67858564  0.43071681    -0.05870
C671        C  0.05908023  0.65921638  0.44176420     0.00070
C672        C  0.06735293  0.61784960  0.94600050    -0.08400
C673        C  0.03601878  0.59621970  0.95103089     0.61980
H674        H  0.11465123  0.56393712  0.95026796     0.12670
H675        H  0.08001350  0.71089042  0.42591162     0.12690
C676        C  0.15786536  0.67895274  0.41674106     0.62210
F677        F  0.05052371  0.55727257  0.94643449    -0.22950
F678        F  0.00730140  0.61571528  0.42520189    -0.20280
F679        F  0.02083696  0.59525178  0.98538240    -0.19960
F680        F  0.17885370  0.66381482  0.38869206    -0.20010
F681        F  0.18213291  0.67475261  0.94466313    -0.20330
F682        F  0.14086242  0.71941975  0.40419137    -0.23010
C683        C  0.36352735  0.98232212  0.40179989    -0.05840
C684        C  0.36209647  0.49660608  0.43337062     0.00080
C685        C  0.39842667  0.49531311  0.44798911    -0.08490
C686        C  0.43180616  0.48593101  0.42701703    -0.05870
C687        C  0.43314828  0.97224485  0.39743609     0.00070
C688        C  0.39788417  0.97161645  0.38234979    -0.08400
C689        C  0.39574505  0.96249631  0.34504727     0.61980
H690        H  0.33596971  0.98364561  0.39026072     0.12670
H691        H  0.45962100  0.48683597  0.43638016     0.12690
C692        C  0.40183547  0.50770328  0.48349126     0.62210
F693        F  0.35872175  0.96192420  0.33667159    -0.22950
F694        F  0.42100820  0.92540582  0.34387572    -0.20280
F695        F  0.40561147  0.99136292  0.31877960    -0.19960
F696        F  0.39029309  0.48925121  0.01128537    -0.20010
F697        F  0.37838083  0.54618342  0.48211483    -0.20330
F698        F  0.43953533  0.50742511  0.49028891    -0.23010
C699        C  0.18978832  0.51812244  0.36088340    -0.05840
C700        C  0.19938342  0.48838602  0.39262099     0.00080
C701        C  0.19077793  0.95043232  0.39318921    -0.08490
C702        C  0.16622100  0.94752410  0.36664889    -0.05870
C703        C  0.15359001  0.47999906  0.33731242     0.00070
C704        C  0.16828674  0.51365575  0.33234563    -0.08400
C705        C  0.16513022  0.54321101  0.29669349     0.61980
H706        H  0.19702609  0.54592728  0.35918084     0.12670
H707        H  0.15882459  0.92016696  0.36779954     0.12690
C708        C  0.21019728  0.91293569  0.42049338     0.62210
F709        F  0.20214972  0.54025454  0.28304721    -0.22950
F710        F  0.14911938  0.58160112  0.30187931    -0.20280
F711        F  0.14309764  0.53601781  0.27120448    -0.19960
F712        F  0.19757676  0.88063110  0.41702207    -0.20010
F713        F  0.20265001  0.91849648  0.45525375    -0.20330
F714        F  0.24975267  0.90322675  0.41472528    -0.23010
C715        C  0.16379539  0.50519940  0.10372700    -0.05840
C716        C  0.20366259  0.50211878  0.10293282     0.00080
C717        C  0.22706400  0.98474944  0.13582470    -0.08490
C718        C  0.20751530  0.97270169  0.16836122    -0.05870
C719        C  0.16754039  0.97468820  0.16783678     0.00070
C720        C  0.14536833  0.48978094  0.13429638    -0.08400
C721        C  0.10380996  0.48884214  0.13071472     0.61980
H722        H  0.14776474  0.51556054  0.07856377     0.12670
H723        H  0.22340484  0.96060725  0.19383328     0.12690
C724        C  0.27077244  0.97760289  0.13576908     0.62210
F725        F  0.08972485  0.50166329  0.09551597    -0.22950
F726        F  0.08046486  0.51368595  0.15125600    -0.20280
F727        F  0.10352431  0.95100067  0.14194704    -0.19960
F728        F  0.27695216  0.51513806  0.12427566    -0.20010
F729        F  0.28751985  0.95311251  0.11201585    -0.20330
F730        F  0.28714384  0.95952492  0.16982259    -0.23010
C731        C  0.48624522  0.93795070  0.18366987    -0.05840
C732        C  0.49657024  0.97309013  0.16870300     0.00080
C733        C  0.46568992  0.00752479  0.17056620    -0.08490
C734        C  0.45012636  0.50558149  0.19884999    -0.05870
C735        C  0.45945115  0.47090400  0.22688886     0.00070
C736        C  0.46776482  0.93678040  0.21765289    -0.08400
C737        C  0.46198941  0.89843979  0.23916866     0.61980
H738        H  0.49955600  0.91062162  0.17419613     0.12670
H739        H  0.43459262  0.53440270  0.20465331     0.12690
C740        C  0.95986030  0.54267469  0.14046918     0.62210
F741        F  0.43999863  0.88420021  0.21891456    -0.22950
F742        F  0.44250306  0.90460949  0.27085146    -0.20280
F743        F  0.49770688  0.87037803  0.24750684    -0.19960
F744        F  0.92131861  0.55451547  0.12921609    -0.20010
F745        F  0.99247280  0.03004974  0.10905374    -0.20330
F746        F  0.96810465  0.57334718  0.15246776    -0.23010
C747        C  0.48100132  0.63645646  0.28992989    -0.05840
C748        C  0.50899710  0.62096381  0.31807709     0.00080
C749        C  0.04195604  0.62296635  0.30812495    -0.08490
C750        C  0.05413917  0.60716701  0.27659341    -0.05870
C751        C  0.02603361  0.59829430  0.25704713     0.00070
C752        C  0.49002905  0.62031962  0.25836389    -0.08400
C753        C  0.45717872  0.62217933  0.23390695     0.61980
H754        H  0.45078859  0.64905389  0.29630551     0.12670
H755        H  0.08475316  0.59620708  0.27129487     0.12690
C756        C  0.07076659  0.62788673  0.33329529     0.62210
F757        F  0.43585971  0.66155569  0.22201592    -0.22950
F758        F  0.43292101  0.60117225  0.25281297    -0.20280
F759        F  0.47119535  0.60607045  0.20408415    -0.19960
F760        F  0.09802819  0.08792733  0.34778398    -0.20010
F761        F  0.05139709  0.64828598  0.35916346    -0.20330
F762        F  0.09418963  0.64953915  0.31387510    -0.23010
C763        C  0.51613161  0.86272947  0.34452980    -0.05840
C764        C  0.55157236  0.87061743  0.35001584     0.00080
C765        C  0.07274253  0.84766147  0.37926778    -0.08490
C766        C  0.05551757  0.82689570  0.40863340    -0.05870
C767        C  0.51753785  0.82385569  0.40696340     0.00070
C768        C  0.49996169  0.83763639  0.37166248    -0.08400
C769        C  0.46444966  0.82632392  0.36255016     0.61980
H770        H  0.50034883  0.87767935  0.31938123     0.12670
H771        H  0.07020366  0.81728976  0.43469792     0.12690
C772        C  0.11251110  0.85283969  0.38311744     0.62210
F773        F  0.43374121  0.84083498  0.38389819    -0.22950
F774        F  0.47290343  0.78517792  0.36846267    -0.20280
F775        F  0.45297891  0.84147889  0.32668040    -0.19960
F776        F  0.10832600  0.89244705  0.38287461    -0.20010
F777        F  0.13531710  0.84214753  0.35426192    -0.20330
F778        F  0.13132611  0.82942336  0.41481320    -0.23010
C779        C  0.96807306  0.75962423  0.14744479    -0.05840
C780        C  0.45013874  0.80016766  0.13638436     0.00080
C781        C  0.40934804  0.80861105  0.13221088    -0.08490
C782        C  0.39670256  0.78386151  0.11347024    -0.05870
C783        C  0.42503107  0.75075453  0.10410232     0.00070
C784        C  0.95774081  0.73390033  0.12827996    -0.08400
C785        C  0.98327688  0.69198107  0.13176829     0.61980
H786        H  0.99546913  0.74972581  0.16234751     0.12670
H787        H  0.36822975  0.79436258  0.10050313     0.12690
C788        C  0.38202824  0.84627636  0.14096739     0.62210
F789        F  0.98801947  0.67359215  0.16796668    -0.22950
F790        F  0.01943326  0.69256380  0.11758299    -0.20280
F791        F  0.96665056  0.67046984  0.11405962    -0.19960
F792        F  0.39151689  0.87956566  0.12129820    -0.20010
F793        F  0.38515168  0.84546178  0.17748770    -0.20330
F794        F  0.34371875  0.84958697  0.13306869    -0.23010
C795        C  0.11702272  0.65339835  0.02119288    -0.05840
C796        C  0.10131698  0.62127823  0.03456358     0.00080
C797        C  0.06405676  0.62930449  0.05047142    -0.08490
C798        C  0.04141414  0.66910233  0.04701304    -0.05870
C799        C  0.05581882  0.70133002  0.03140241     0.00070
C800        C  0.09521891  0.69342898  0.02035097    -0.08400
C801        C  0.11381750  0.72762133  0.50624641     0.61980
H802        H  0.14623416  0.64763566  0.51003537     0.12670
H803        H  0.01217347  0.67517790  0.05718950     0.12690
C804        C  0.05025543  0.59657247  0.07483902     0.62210
F805        F  0.15188856  0.71361481  0.49574685    -0.22950
F806        F  0.11420626  0.74845336  0.53312284    -0.20280
F807        F  0.09269742  0.75314248  0.47669857    -0.19960
F808        F  0.07887312  0.57629624  0.10071319    -0.20010
F809        F  0.04289403  0.57074793  0.05541134    -0.20330
F810        F  0.01652470  0.61143989  0.09273057    -0.23010
C811        C  0.50911109  0.57900544  0.83547492     0.76390
Tb812      Tb  0.08112586  0.96289785  0.74741811     1.80740
O813        O  0.47974794  0.56710546  0.83243951    -0.51630
O814        O  0.45275493  0.51651079  0.84133442    -0.59080
C815        C  0.03328965  0.55544365  0.75416047     0.92200
O816        O  0.12515969  0.49420806  0.71706602    -0.58610
Tb817      Tb  0.51496799  0.50555305  0.81887855     1.78060
O818        O  0.56251581  0.93668413  0.70162908    -0.59110
O819        O  0.53762898  0.93557065  0.83642145    -0.77910
O820        O  0.00752360  0.53809094  0.76475653    -0.77230
O821        O  0.08515385  0.49915426  0.82793346    -0.62500
C822        C  0.55700133  0.90472452  0.82500214     0.91790
O823        O  0.52091980  0.94718825  0.76213565    -0.74450
C824        C  0.53616948  0.96818565  0.68815123     0.75230
C825        C  0.46129443  0.98598800  0.86893465     0.76210
O826        O  0.03813876  0.55104516  0.84392341    -0.59690
O827        O  0.49728365  0.96988052  0.87484161    -0.51640
O828        O  0.12091725  0.95546179  0.79726463    -0.77700
O829        O  0.47814803  0.50347535  0.76987673    -0.61700
C830        C  0.48564897  0.47296370  0.75587717     0.90010
C831        C  0.11631552  0.97863324  0.81951767     0.91240
C832        C  0.14508440  0.96626607  0.70081969     0.75580
O833        O  0.53619204  0.99786263  0.70171902    -0.51030
O834        O  0.13501422  0.93440549  0.71186918    -0.52180
O835        O  0.07694315  0.90637827  0.79504732    -0.65030
O836        O  0.06701311  0.53345380  0.74962640    -0.66170
C837        C  0.46700923  0.81500138  0.60191570     0.76390
Tb838      Tb  0.45626043  0.73479569  0.48358906     1.80740
O839        O  0.99633556  0.79384722  0.58724868    -0.51630
O840        O  0.99784678  0.87171585  0.54299176    -0.59080
C841        C  0.43236396  0.75542135  0.56367274     0.92200
O842        O  0.42938139  0.68188550  0.50587037    -0.58610
Tb843      Tb  0.47722888  0.82123131  0.52794739     1.78060
O844        O  0.00418999  0.71974732  0.93934516    -0.59110
O845        O  0.50725633  0.81377499  0.97022702    -0.77910
O846        O  0.42668564  0.79064643  0.54518767    -0.77230
O847        O  0.41420494  0.83537166  0.50186803    -0.62500
C848        C  0.49826448  0.80561166  0.94067603     0.91790
O849        O  0.99434139  0.75286810  0.51913929    -0.74450
C850        C  0.01999362  0.68384514  0.95367511     0.75230
C851        C  0.98972315  0.89640204  0.51364008     0.76210
O852        O  0.44789736  0.84463312  0.57880403    -0.59690
O853        O  0.47457238  0.88429244  0.49160164    -0.51640
O854        O  0.40042559  0.79119852  0.47296464    -0.77700
O855        O  0.03830973  0.77087409  0.53798909    -0.61700
C856        C  0.02929890  0.74267976  0.52937158     0.90010
C857        C  0.39095189  0.82399540  0.48438913     0.91240
C858        C  0.40060508  0.69212106  0.98467294     0.75580
O859        O  0.00418833  0.67111405  0.48179439    -0.51030
O860        O  0.40064980  0.72322444  0.96115892    -0.52180
O861        O  0.47416130  0.78492117  0.93973366    -0.65030
O862        O  0.44833244  0.72636821  0.54824006    -0.66170
C863        C  0.12304484  0.58161403  0.52860301     0.76390
Tb864      Tb  0.25309275  0.54158417  0.98134856     1.80740
O865        O  0.10723684  0.55586477  0.52370535    -0.51630
O866        O  0.11513458  0.99444375  0.97952248    -0.59170
C867        C  0.17814471  0.58945543  0.45216312     0.92200
O868        O  0.26228566  0.60587153  0.46598182    -0.58610
Tb869      Tb  0.16337632  0.50865785  0.50736517     1.78060
O870        O  0.32072833  0.01111514  0.98332631    -0.59110
O871        O  0.21817241  0.95134855  0.00495657    -0.77910
O872        O  0.18550888  0.55615196  0.47317723    -0.77230
O873        O  0.20894291  0.47812286  0.55235859    -0.62500
C874        C  0.25521874  0.94606500  0.00300369     0.91790
O875        O  0.23143115  0.51415298  0.93372327    -0.74450
C876        C  0.32466481  0.51199806  0.95057181     0.75230
C877        C  0.10143629  0.97779653  0.50741428     0.76210
O878        O  0.15926475  0.57040162  0.52464574    -0.59690
O879        O  0.11955375  0.97522248  0.53614282    -0.51640
O880        O  0.23015795  0.53173051  0.54570437    -0.77700
O881        O  0.17427074  0.50020163  0.94816442    -0.61700
C882        C  0.20274818  0.50121426  0.92691113     0.90010
C883        C  0.21880873  0.50291897  0.56626950     0.91240
C884        C  0.28972728  0.60032199  0.48787131     0.75580
O885        O  0.29309948  0.52594922  0.93277739    -0.51030
O886        O  0.29630701  0.56685577  0.50938222    -0.52180
O887        O  0.27104283  0.97304998  0.00532992    -0.65030
O888        O  0.20887792  0.59904645  0.44552752    -0.66170
C889        C  0.32833368  0.84362986  0.51562452    -0.05840
C890        C  0.34968384  0.84806851  0.48343350     0.00080
C891        C  0.33432604  0.88090890  0.95621809    -0.08490
C892        C  0.30197186  0.91153834  0.96303651    -0.05870
C893        C  0.28226302  0.90848588  0.99608895     0.00070
C894        C  0.29412202  0.87325597  0.52136726    -0.08400
C895        C  0.27218806  0.86829328  0.55651548     0.61980
H896        H  0.34003077  0.81796195  0.53711689     0.12670
H897        H  0.29254171  0.93895498  0.94279807     0.12690
C898        C  0.35309031  0.88409617  0.91958728     0.62210
F899        F  0.28796557  0.83138290  0.57885384    -0.22950
F900        F  0.23378354  0.87165422  0.54906390    -0.20280
F901        F  0.27337396  0.89756671  0.57486770    -0.19960
F902        F  0.35854521  0.84874209  0.90789981    -0.20010
F903        F  0.38861253  0.89151645  0.92200734    -0.20330
F904        F  0.32967259  0.91440151  0.89424098    -0.23010
C905        C  0.35037600  0.67333183  0.95469938    -0.05840
C906        C  0.37083421  0.67030709  0.48640576     0.00080
C907        C  0.36131039  0.64743061  0.51948714    -0.08490
C908        C  0.33334692  0.62660727  0.51885546    -0.05870
C909        C  0.31438221  0.62795034  0.48671739     0.00070
C910        C  0.32254036  0.65244369  0.95368663    -0.08400
C911        C  0.30459768  0.65447246  0.91739162     0.61980
H912        H  0.35784777  0.69120816  0.92997727     0.12670
H913        H  0.32660687  0.60820999  0.54361619     0.12690
C914        C  0.37999064  0.64509399  0.55557078     0.62210
F915        F  0.31906094  0.67770808  0.88907413    -0.22950
F916        F  0.26470055  0.67106941  0.91801067    -0.20280
F917        F  0.31277589  0.61649038  0.91031435    -0.19960
F918        F  0.37619684  0.68318764  0.56086798    -0.20010
F919        F  0.41903186  0.62418899  0.55599165    -0.20330
F920        F  0.36265078  0.62573169  0.58449881    -0.23010
C921        C  0.03789698  0.97009425  0.53039116    -0.05840
C922        C  0.06855243  0.96184413  0.50625692     0.00080
C923        C  0.06806284  0.93808080  0.98123615    -0.08490
C924        C  0.03459463  0.92579112  0.47864612    -0.05870
C925        C  0.00617201  0.92987829  0.50526012     0.00070
C926        C  0.00708749  0.95301503  0.53122956    -0.08400
C927        C  0.48014062  0.95900881  0.56085403     0.61980
H928        H  0.03898112  0.98826120  0.54978022     0.12670
H929        H  0.03421584  0.90694688  0.95982914     0.12690
C930        C  0.10440528  0.92037424  0.96137823     0.62210
F931        F  0.96169467  0.49946480  0.56078520    -0.22950
F932        F  0.49865567  0.94188221  0.59408265    -0.20280
F933        F  0.44820261  0.94201225  0.06021439    -0.19960
F934        F  0.13638332  0.90770215  0.48465449    -0.20010
F935        F  0.11007451  0.94846385  0.93189754    -0.20330
F936        F  0.10143237  0.88728697  0.94969162    -0.23010
C937        C  0.10800007  0.59574569  0.44428833    -0.05840
C938        C  0.13791215  0.61459823  0.44024364     0.00080
C939        C  0.12653449  0.65712238  0.92940074    -0.08490
C940        C  0.08699911  0.67897414  0.93089850    -0.05870
C941        C  0.05790663  0.65976854  0.94210609     0.00070
C942        C  0.06852921  0.61738195  0.44527353    -0.08400
C943        C  0.03721253  0.59574188  0.45008560     0.61980
H944        H  0.11585229  0.56360142  0.44938987     0.12670
H945        H  0.07900466  0.71128566  0.92587639     0.12690
C946        C  0.15679798  0.67915405  0.91663783     0.62210
F947        F  0.05160600  0.55711739  0.44462987    -0.22950
F948        F  0.00642351  0.61568221  0.92571518    -0.20280
F949        F  0.02248644  0.59394851  0.48465660    -0.19960
F950        F  0.17756516  0.66392784  0.88852949    -0.20010
F951        F  0.18300079  0.67454164  0.44492825    -0.20330
F952        F  0.13983709  0.71962476  0.90406409    -0.23010
C953        C  0.36200950  0.98529538  0.89983633    -0.05840
C954        C  0.36229511  0.49735510  0.93367784     0.00080
C955        C  0.39814198  0.49833621  0.94750083    -0.08490
C956        C  0.43173051  0.48825310  0.92696667    -0.05870
C957        C  0.43082275  0.97798845  0.89350501     0.00070
C958        C  0.39580766  0.97569488  0.87966858    -0.08400
C959        C  0.39279144  0.96767331  0.84206298     0.61980
H960        H  0.33447682  0.98616187  0.88845605     0.12670
H961        H  0.45914074  0.49082913  0.93566988     0.12690
C962        C  0.40061671  0.51393890  0.98145279     0.62210
F963        F  0.36624236  0.94634629  0.84146914    -0.22950
F964        F  0.42820515  0.94552104  0.83122995    -0.20280
F965        F  0.38051977  0.00359490  0.81748409    -0.19960
F966        F  0.39082623  0.48176426  0.51188676    -0.20010
F967        F  0.37595945  0.55219261  0.97788365    -0.20330
F968        F  0.43780347  0.51574364  0.98748762    -0.23010
C969        C  0.18952887  0.51812362  0.86060844    -0.05840
C970        C  0.19927119  0.48841128  0.89233062     0.00080
C971        C  0.19106210  0.95049166  0.89400534    -0.08490
C972        C  0.16658217  0.94758657  0.86737859    -0.05870
C973        C  0.15341945  0.47978805  0.83724819     0.00070
C974        C  0.16802668  0.51351983  0.83215298    -0.08400
C975        C  0.16482938  0.54298306  0.79644199     0.61980
H976        H  0.19667788  0.54598318  0.85884732     0.12670
H977        H  0.15916690  0.92024605  0.86853794     0.12690
C978        C  0.21044578  0.91301952  0.92135971     0.62210
F979        F  0.20182862  0.53994148  0.78271645    -0.22950
F980        F  0.14889783  0.58142003  0.80153908    -0.20280
F981        F  0.14271325  0.53573756  0.77106000    -0.19960
F982        F  0.19782987  0.88071111  0.91789381    -0.20010
F983        F  0.20286817  0.91863338  0.95610706    -0.20330
F984        F  0.25001648  0.90330462  0.91566095    -0.23010
C985        C  0.16311282  0.50716111  0.60461165    -0.05840
C986        C  0.20315495  0.50317264  0.60360417     0.00080
C987        C  0.22694924  0.98528268  0.63484986    -0.08490
C988        C  0.20746645  0.97346390  0.66751158    -0.05870
C989        C  0.16755928  0.97511756  0.66715114     0.00070
C990        C  0.14486747  0.49095731  0.63491489    -0.08400
C991        C  0.10337640  0.48990635  0.63114153     0.61980
H992        H  0.14679247  0.51850565  0.57962180     0.12670
H993        H  0.22338859  0.96179562  0.69301517     0.12690
C994        C  0.27061200  0.97844660  0.63473235     0.62210
F995        F  0.08945285  0.50276254  0.59588517    -0.22950
F996        F  0.07985694  0.51458730  0.65171978    -0.20280
F997        F  0.10357398  0.95076736  0.64183303    -0.19960
F998        F  0.27758251  0.51377202  0.62494425    -0.20010
F999        F  0.28753901  0.95348417  0.61140758    -0.20330
F1000       F  0.28699633  0.96105259  0.66888628    -0.23010
C1001       C  0.49047836  0.93335828  0.68298500    -0.05840
C1002       C  0.50171803  0.96788639  0.66768470     0.00080
C1003       C  0.47097030  0.00301186  0.66768309    -0.08490
C1004       C  0.45007763  0.50523184  0.69902019    -0.05870
C1005       C  0.45930885  0.47073900  0.72726895     0.00070
C1006       C  0.47029125  0.93382703  0.71605940    -0.08400
C1007       C  0.46302070  0.89636006  0.73799941     0.61980
H1008       H  0.50408640  0.90539008  0.67467781     0.12670
H1009       H  0.43483095  0.53421067  0.70465466     0.12690
C1010       C  0.95994296  0.54243498  0.64056046     0.62210
F1011       F  0.44115107  0.88221947  0.71753286    -0.22950
F1012       F  0.44271586  0.90381187  0.76902485    -0.20280
F1013       F  0.49811088  0.86763378  0.74755849    -0.19960
F1014       F  0.92142900  0.55437824  0.62921358    -0.20010
F1015       F  0.99258679  0.03043772  0.60901063    -0.20330
F1016       F  0.96823293  0.57304650  0.65262786    -0.23010
C1017       C  0.48121223  0.63617772  0.79018270    -0.05840
C1018       C  0.50934520  0.62069029  0.81822222     0.00080
C1019       C  0.04184490  0.62265318  0.80823917    -0.08490
C1020       C  0.05394065  0.60693115  0.77665362    -0.05870
C1021       C  0.02578993  0.59806525  0.75715842     0.00070
C1022       C  0.49002124  0.61998629  0.75862760    -0.08400
C1023       C  0.45701345  0.62185516  0.73433583     0.61980
H1024       H  0.45104716  0.64881911  0.79667608     0.12670
H1025       H  0.08453514  0.59600722  0.77127214     0.12690
C1026       C  0.07072435  0.62751259  0.83338007     0.62210
F1027       F  0.43581299  0.66125507  0.72235289    -0.22950
F1028       F  0.43270621  0.60105835  0.75346757    -0.20280
F1029       F  0.47077915  0.60553087  0.70455370    -0.19960
F1030       F  0.09769450  0.08826691  0.84868803    -0.20010
F1031       F  0.05143377  0.64770955  0.85940777    -0.20330
F1032       F  0.09402037  0.64931976  0.81396399    -0.23010
C1033       C  0.51600920  0.85792278  0.84279359    -0.05840
C1034       C  0.55133670  0.86648385  0.84721439     0.00080
C1035       C  0.07240564  0.84751863  0.87917786    -0.08490
C1036       C  0.05498635  0.82688958  0.90851927    -0.05870
C1037       C  0.51760978  0.82167956  0.90612792     0.00070
C1038       C  0.49971276  0.83423094  0.87095714    -0.08400
C1039       C  0.46296459  0.82420868  0.86317888     0.61980
H1040       H  0.49991276  0.87216867  0.81769341     0.12670
H1041       H  0.06994722  0.81655375  0.93445159     0.12690
C1042       C  0.11260654  0.85171843  0.88290953     0.62210
F1043       F  0.43330925  0.84033247  0.88486248    -0.22950
F1044       F  0.46984727  0.78318418  0.86989222    -0.20280
F1045       F  0.45070983  0.83906154  0.82744322    -0.19960
F1046       F  0.10944968  0.89121943  0.88216211    -0.20010
F1047       F  0.13518809  0.84010176  0.85424255    -0.20330
F1048       F  0.13106601  0.82843017  0.91480751    -0.23010
C1049       C  0.96753497  0.76001623  0.64723542    -0.05840
C1050       C  0.44918515  0.79951846  0.63642014     0.00080
C1051       C  0.40841149  0.80822965  0.63190146    -0.08490
C1052       C  0.39577139  0.78376534  0.61281560    -0.05870
C1053       C  0.42405597  0.75067037  0.60337224     0.00070
C1054       C  0.95730544  0.73414594  0.62817924    -0.08400
C1055       C  0.98270495  0.69212323  0.63208170     0.61980
H1056       H  0.99481914  0.75017868  0.66231138     0.12670
H1057       H  0.36738265  0.79449704  0.59968193     0.12690
C1058       C  0.38115184  0.84588511  0.64073943     0.62210
F1059       F  0.98697515  0.67401403  0.66835911    -0.22950
F1060       F  0.01906586  0.69240120  0.61826026    -0.20280
F1061       F  0.96620544  0.67054368  0.61433326    -0.19960
F1062       F  0.39092739  0.87915618  0.62140674    -0.20010
F1063       F  0.38402192  0.84478630  0.67734467    -0.20330
F1064       F  0.34286157  0.84948639  0.63250228    -0.23010
C1065       C  0.11713270  0.65407454  0.52096495    -0.05840
C1066       C  0.10133349  0.62205355  0.53440227     0.00080
C1067       C  0.06425382  0.63003964  0.55061044    -0.08490
C1068       C  0.04176009  0.66979598  0.54733292    -0.05870
C1069       C  0.05614678  0.70194522  0.53150658     0.00070
C1070       C  0.09544059  0.69407970  0.52020967    -0.08400
C1071       C  0.11364997  0.72698175  0.00660258     0.61980
H1072       H  0.14620961  0.64700807  0.01045320     0.12670
H1073       H  0.01262414  0.67588313  0.55772005     0.12690
C1074       C  0.05047918  0.59730884  0.57501044     0.62210
F1075       F  0.15176359  0.71299678  0.99620268    -0.22950
F1076       F  0.11394696  0.74768076  0.03360171    -0.20280
F1077       F  0.09264207  0.75263215  0.97704528    -0.19960
F1078       F  0.07919184  0.57697668  0.60077367    -0.20010
F1079       F  0.04292593  0.57157419  0.55558489    -0.20330
F1080       F  0.01685806  0.61216261  0.59304785    -0.23010
C1081       C  0.00907125  0.07819174  0.33564412     0.76390
Tb1082     Tb  0.58057316  0.46324557  0.24699018     1.80740
O1083       O  0.97975563  0.06617872  0.33270088    -0.51630
O1084       O  0.95305524  0.01601350  0.34210728    -0.59080
C1085       C  0.53248889  0.05621126  0.25468784     0.92200
O1086       O  0.62500839  0.99470443  0.21685394    -0.58610
Tb1087     Tb  0.01505760  0.00467067  0.31913516     1.78060
O1088       O  0.05964122  0.44037619  0.20081798    -0.59110
O1089       O  0.05751108  0.43624944  0.34293497    -0.77910
O1090       O  0.50683312  0.03867715  0.26517828    -0.77230
O1091       O  0.58408593  0.00109308  0.32724914    -0.62500
C1092       C  0.06115253  0.40690244  0.32764946     0.91790
O1093       O  0.01976821  0.44750665  0.26498302    -0.74450
C1094       C  0.03269941  0.47185054  0.18860170     0.75230
C1095       C  0.96701427  0.47780318  0.37474479     0.76210
O1096       O  0.53642486  0.05062446  0.34599761    -0.59690
O1097       O  0.98565151  0.50167310  0.37859380    -0.51640
O1098       O  0.62021403  0.45555817  0.29706331    -0.77700
O1099       O  0.97826927  0.00221170  0.27024515    -0.61700
C1100       C  0.98599653  0.97177280  0.25611353     0.90010
C1101       C  0.61578767  0.47895378  0.31910263     0.91240
C1102       C  0.64483901  0.46618557  0.20066431     0.75580
O1103       O  0.03276608  0.50097234  0.20296097    -0.51030
O1104       O  0.63447443  0.43447803  0.21157695    -0.52180
O1105       O  0.57570850  0.40677145  0.29436862    -0.65030
O1106       O  0.56613977  0.03446099  0.24953475    -0.66170
C1107       C  0.96643543  0.31477115  0.10244179     0.76390
Tb1108     Tb  0.95618773  0.23468690  0.98405692     1.80740
O1109       O  0.49644770  0.29393257  0.08743048    -0.51630
O1110       O  0.49818114  0.37176234  0.04306611    -0.59080
C1111       C  0.93171983  0.25549583  0.06401974     0.92200
O1112       O  0.92937254  0.18166249  0.00613534    -0.58610
Tb1113     Tb  0.97659560  0.32133393  0.02843079     1.78060
O1114       O  0.51629197  0.22346271  0.45977052    -0.59110
O1115       O  0.00750182  0.31389965  0.47157257    -0.77910
O1116       O  0.92603011  0.29072639  0.04553448    -0.77230
O1117       O  0.91378744  0.33524883  0.00207563    -0.62500
C1118       C  0.99837916  0.30690490  0.44154331     0.91790
O1119       O  0.49403334  0.25293854  0.01923478    -0.74450
C1120       C  0.51953043  0.18853906  0.45619332     0.75230
C1121       C  0.48999475  0.39643520  0.01370309     0.76210
O1122       O  0.94743325  0.34454788  0.07941018    -0.59690
O1123       O  0.97344948  0.38471731  0.99249038    -0.51640
O1124       O  0.90031705  0.29100719  0.97307128    -0.77700
O1125       O  0.53809084  0.27064910  0.03816868    -0.61700
C1126       C  0.52900675  0.24250967  0.02949714     0.90010
C1127       C  0.89070088  0.32381825  0.98446686     0.91240
C1128       C  0.90120374  0.19264591  0.48402626     0.75580
O1129       O  0.50285559  0.17210701  0.98190782    -0.51030
O1130       O  0.90129195  0.22369934  0.46045532    -0.52180
O1131       O  0.97428257  0.28639611  0.43985775    -0.65030
O1132       O  0.94792765  0.22643810  0.04865907    -0.66170
C1133       C  0.62336568  0.08097685  0.02957520     0.76390
Tb1134     Tb  0.75329156  0.04268374  0.48070248     1.80740
O1135       O  0.60779753  0.05483209  0.02523334    -0.51630
O1136       O  0.61479723  0.49420240  0.47993411    -0.59170
C1137       C  0.67759034  0.08932242  0.95258101     0.92200
O1138       O  0.76332628  0.10508728  0.96457255    -0.58610
Tb1139     Tb  0.66396948  0.00797183  0.00815671     1.78060
O1140       O  0.82055865  0.51103827  0.48399535    -0.59110
O1141       O  0.71847266  0.45136896  0.50367177    -0.77910
O1142       O  0.68511460  0.05592636  0.97346794    -0.77230
O1143       O  0.71060545  0.97729455  0.05227060    -0.62500
C1144       C  0.75547666  0.44617017  0.50118820     0.91790
O1145       O  0.73067684  0.01763612  0.43190002    -0.74450
C1146       C  0.82579234  0.01390717  0.45149472     0.75230
C1147       C  0.60163423  0.47780828  0.00732289     0.76210
O1148       O  0.65954948  0.07000790  0.02522170    -0.59690
O1149       O  0.61952672  0.47542708  0.03612444    -0.51640
O1150       O  0.73061889  0.03143871  0.04585864    -0.77700
O1151       O  0.67584782  0.99976203  0.44864097    -0.61700
C1152       C  0.70278803  0.00308134  0.42609631     0.90010
C1153       C  0.71985827  0.00225362  0.06637376     0.91240
C1154       C  0.78949347  0.10039168  0.98753862     0.75580
O1155       O  0.79570563  0.03329443  0.43265703    -0.51030
O1156       O  0.79480579  0.06771249  0.01011382    -0.52180
O1157       O  0.77141103  0.47317819  0.50305973    -0.65030
O1158       O  0.70833713  0.09884679  0.94571388    -0.66170
C1159       C  0.82790351  0.34342334  0.01538215    -0.05840
C1160       C  0.84943994  0.34788293  0.98330004     0.00080
C1161       C  0.83494137  0.38075445  0.45490860    -0.08490
C1162       C  0.80235391  0.41137791  0.46133213    -0.05870
C1163       C  0.78242614  0.40853199  0.49433816     0.00070
C1164       C  0.79377515  0.37316573  0.02110893    -0.08400
C1165       C  0.77177243  0.36827374  0.05622206     0.61980
H1166       H  0.83944689  0.31767869  0.03685116     0.12670
H1167       H  0.79305785  0.43867854  0.44093670     0.12690
C1168       C  0.85452541  0.38369934  0.41860290     0.62210
F1169       F  0.78740066  0.33132015  0.07854700    -0.22950
F1170       F  0.73333881  0.37181587  0.04871628    -0.20280
F1171       F  0.77308697  0.39747391  0.07461815    -0.19960
F1172       F  0.85961584  0.34849326  0.40675250    -0.20010
F1173       F  0.89032794  0.39014937  0.42198273    -0.20330
F1174       F  0.83224614  0.41442128  0.39279920    -0.23010
C1175       C  0.85103789  0.17395980  0.45400160    -0.05840
C1176       C  0.87080175  0.17018195  0.98653535     0.00080
C1177       C  0.86131706  0.14708316  0.01949864    -0.08490
C1178       C  0.83324305  0.12641554  0.01872268    -0.05870
C1179       C  0.81421028  0.12799860  0.98652891     0.00070
C1180       C  0.82321499  0.15311140  0.45287750    -0.08400
C1181       C  0.80525811  0.15546296  0.41648951     0.61980
H1182       H  0.85852057  0.19191857  0.42933723     0.12670
H1183       H  0.82652573  0.10789638  0.04341282     0.12690
C1184       C  0.88017812  0.14432609  0.05560734     0.62210
F1185       F  0.81950121  0.17912356  0.38835273    -0.22950
F1186       F  0.76532659  0.17180082  0.41721895    -0.20280
F1187       F  0.81370262  0.11765178  0.40898696    -0.19960
F1188       F  0.87646095  0.18227062  0.06125884    -0.20010
F1189       F  0.91920677  0.12343494  0.05578060    -0.20330
F1190       F  0.86295864  0.12469272  0.08445058    -0.23010
C1191       C  0.53809188  0.47019881  0.03025092    -0.05840
C1192       C  0.56871541  0.46194104  0.00608540     0.00080
C1193       C  0.57294799  0.43315326  0.48223995    -0.08490
C1194       C  0.53471294  0.42587872  0.97854135    -0.05870
C1195       C  0.50637769  0.42993239  0.00522745     0.00070
C1196       C  0.50727954  0.45313425  0.03112991    -0.08400
C1197       C  0.97811000  0.45908741  0.06233354     0.61980
H1198       H  0.53919763  0.48837297  0.04962848     0.12670
H1199       H  0.54172462  0.39962591  0.46072251     0.12690
C1200       C  0.60993630  0.41744305  0.46234726     0.62210
F1201       F  0.46195631  0.99912857  0.06097322    -0.22950
F1202       F  0.99636765  0.44207913  0.09569605    -0.20280
F1203       F  0.94779777  0.44236627  0.56030176    -0.19960
F1204       F  0.63641630  0.40770338  0.98414318    -0.20010
F1205       F  0.61453282  0.44667921  0.43343908    -0.20330
F1206       F  0.60905866  0.38419958  0.44973105    -0.23010
C1207       C  0.60718882  0.09595692  0.94548447    -0.05840
C1208       C  0.63722554  0.11465370  0.94108152     0.00080
C1209       C  0.62553983  0.15717658  0.43036400    -0.08490
C1210       C  0.58630701  0.17973671  0.43170320    -0.05870
C1211       C  0.55694313  0.16193383  0.44590595     0.00070
C1212       C  0.56772817  0.11775456  0.94639142    -0.08400
C1213       C  0.53634923  0.09618810  0.95136312     0.61980
H1214       H  0.61496361  0.06380548  0.95076656     0.12670
H1215       H  0.57864154  0.21195651  0.42348429     0.12690
C1216       C  0.65590429  0.17834998  0.41529408     0.62210
F1217       F  0.55078100  0.05728882  0.94662681    -0.22950
F1218       F  0.50516729  0.11089367  0.44085791    -0.20280
F1219       F  0.52122506  0.09510863  0.98574668    -0.19960
F1220       F  0.67654361  0.16049150  0.38844868    -0.20010
F1221       F  0.68268861  0.17434636  0.94522654    -0.20330
F1222       F  0.63910503  0.21827765  0.40017897    -0.23010
C1223       C  0.86397137  0.48305695  0.40212364    -0.05840
C1224       C  0.86318465  0.99798824  0.43502397     0.00080
C1225       C  0.89906792  0.99896083  0.44847525    -0.08490
C1226       C  0.93253007  0.98835094  0.42788795    -0.05870
C1227       C  0.93347056  0.47377895  0.39742471     0.00070
C1228       C  0.89830139  0.47259562  0.38257547    -0.08400
C1229       C  0.89621788  0.46312661  0.34540552     0.61980
H1230       H  0.83646713  0.48395895  0.39075868     0.12670
H1231       H  0.96003720  0.99094054  0.43633109     0.12690
C1232       C  0.90141974  0.01535322  0.48194147     0.62210
F1233       F  0.85922945  0.46238587  0.33711168    -0.22950
F1234       F  0.92156061  0.42600552  0.34446439    -0.20280
F1235       F  0.90602623  0.49186513  0.31894533    -0.19960
F1236       F  0.89033412  0.98747885  0.01167989    -0.20010
F1237       F  0.87673128  0.05364572  0.47772036    -0.20330
F1238       F  0.93861267  0.01724453  0.48780205    -0.23010
C1239       C  0.68878879  0.02035923  0.35972601    -0.05840
C1240       C  0.69842503  0.99066430  0.39148357     0.00080
C1241       C  0.69129321  0.45060333  0.39307443    -0.08490
C1242       C  0.66598950  0.44792143  0.36702940    -0.05870
C1243       C  0.65230688  0.98223260  0.33648668     0.00070
C1244       C  0.66716809  0.01582296  0.33128981    -0.08400
C1245       C  0.66426379  0.04506767  0.29547778     0.61980
H1246       H  0.69623050  0.04808126  0.35786222     0.12670
H1247       H  0.65786937  0.42081461  0.36874080     0.12690
C1248       C  0.71190117  0.41285191  0.41948772     0.62210
F1249       F  0.70135538  0.04164480  0.28186810    -0.22950
F1250       F  0.64856460  0.08365282  0.30033422    -0.20280
F1251       F  0.64213598  0.03778903  0.27011983    -0.19960
F1252       F  0.69928541  0.38049085  0.41618550    -0.20010
F1253       F  0.70580584  0.41767915  0.45456249    -0.20330
F1254       F  0.75119366  0.40376582  0.41232937    -0.23010
C1255       C  0.66373658  0.00568053  0.10425898    -0.05840
C1256       C  0.70364055  0.00240776  0.10357279     0.00080
C1257       C  0.72696064  0.48501084  0.13491630    -0.08490
C1258       C  0.70736844  0.47322590  0.16752292    -0.05870
C1259       C  0.66745028  0.47493394  0.16705714     0.00070
C1260       C  0.64519637  0.99019887  0.13469762    -0.08400
C1261       C  0.60364638  0.98931599  0.13093536     0.61980
H1262       H  0.64778966  0.01608119  0.07906025     0.12670
H1263       H  0.72321142  0.46155713  0.19306802     0.12690
C1264       C  0.77062883  0.47811278  0.13491433     0.62210
F1265       F  0.58968762  0.00224398  0.09570342    -0.22950
F1266       F  0.58023923  0.01410509  0.15148308    -0.20280
F1267       F  0.60333758  0.45085561  0.14151733    -0.19960
F1268       F  0.77704954  0.01495523  0.12520011    -0.20010
F1269       F  0.78759601  0.45314617  0.11160273    -0.20330
F1270       F  0.78691115  0.46068445  0.16910156    -0.23010
C1271       C  0.98718832  0.43659128  0.18423848    -0.05840
C1272       C  0.99763853  0.47158690  0.16899816     0.00080
C1273       C  0.96678643  0.50616109  0.17050420    -0.08490
C1274       C  0.95023839  0.00410826  0.19936146    -0.05870
C1275       C  0.95974991  0.96946689  0.22745254     0.00070
C1276       C  0.96854564  0.43584945  0.21813050    -0.08400
C1277       C  0.96249411  0.39773526  0.23987397     0.61980
H1278       H  0.00044890  0.40909944  0.17501095     0.12670
H1279       H  0.93473532  0.03293336  0.20517493     0.12690
C1280       C  0.45859639  0.04431341  0.14082757     0.62210
F1281       F  0.94042539  0.38346115  0.21972897    -0.22950
F1282       F  0.94295028  0.40429084  0.27144779    -0.20280
F1283       F  0.99809324  0.36952805  0.24841593    -0.19960
F1284       F  0.41993744  0.05637033  0.12991785    -0.20010
F1285       F  0.49225260  0.53130933  0.10845549    -0.20330
F1286       F  0.46714128  0.07470437  0.15306473    -0.23010
C1287       C  0.98082450  0.13543309  0.29057219    -0.05840
C1288       C  0.00907420  0.11997325  0.31850801     0.00080
C1289       C  0.54105128  0.12175053  0.31045954    -0.08490
C1290       C  0.55315398  0.10685340  0.27848128    -0.05870
C1291       C  0.52505379  0.09857799  0.25846368     0.00070
C1292       C  0.98958419  0.11935207  0.25895614    -0.08400
C1293       C  0.95654645  0.12119297  0.23473082     0.61980
H1294       H  0.95067050  0.14795736  0.29717256     0.12670
H1295       H  0.58373122  0.09586990  0.27318060     0.12690
C1296       C  0.57003073  0.12556095  0.33615459     0.62210
F1297       F  0.93518297  0.16056644  0.22291432    -0.22950
F1298       F  0.93240360  0.10017964  0.25384276    -0.20280
F1299       F  0.97030942  0.10507513  0.20485430    -0.19960
F1300       F  0.59782591  0.58857749  0.34791470    -0.20010
F1301       F  0.55099106  0.14253629  0.36414365    -0.20330
F1302       F  0.59184221  0.14968590  0.31785143    -0.23010
C1303       C  0.01701112  0.36218724  0.34490936    -0.05840
C1304       C  0.05216669  0.37051322  0.35062119     0.00080
C1305       C  0.57056682  0.34655854  0.37739854    -0.08490
C1306       C  0.55325696  0.32502067  0.40618621    -0.05870
C1307       C  0.01786297  0.32404483  0.40757360     0.00070
C1308       C  0.00065912  0.33733371  0.37210345    -0.08400
C1309       C  0.96522490  0.32592878  0.36290807     0.61980
H1310       H  0.00150667  0.37673257  0.31955027     0.12670
H1311       H  0.56884167  0.31276486  0.43178348     0.12690
C1312       C  0.61109851  0.34992289  0.38131116     0.62210
F1313       F  0.93434287  0.34070070  0.38398272    -0.22950
F1314       F  0.97364370  0.28477184  0.36910839    -0.20280
F1315       F  0.95401078  0.34077998  0.32694638    -0.19960
F1316       F  0.60877324  0.38908002  0.38144711    -0.20010
F1317       F  0.63331378  0.33877126  0.35229621    -0.20330
F1318       F  0.62949885  0.32567453  0.41288007    -0.23010
C1319       C  0.46766631  0.26003374  0.14739704    -0.05840
C1320       C  0.94855705  0.29934339  0.13692859     0.00080
C1321       C  0.90777687  0.30821845  0.13234460    -0.08490
C1322       C  0.89506815  0.28390180  0.11313218    -0.05870
C1323       C  0.92328689  0.25074810  0.10369830     0.00070
C1324       C  0.45724133  0.23431995  0.12828458    -0.08400
C1325       C  0.48252795  0.19227020  0.13200625     0.61980
H1326       H  0.49500904  0.25005426  0.16239110     0.12670
H1327       H  0.86673066  0.29480165  0.09989302     0.12690
C1328       C  0.88062851  0.34594020  0.14117056     0.62210
F1329       F  0.48684210  0.17400045  0.16824479    -0.22950
F1330       F  0.51888131  0.19250060  0.11813711    -0.20280
F1331       F  0.46589336  0.17086730  0.11417148    -0.19960
F1332       F  0.89053336  0.37914439  0.12185479    -0.20010
F1333       F  0.88350205  0.34482718  0.17777857    -0.20330
F1334       F  0.84231140  0.34968704  0.13290439    -0.23010
C1335       C  0.61706112  0.15370021  0.02150639    -0.05840
C1336       C  0.60137423  0.12159982  0.03503357     0.00080
C1337       C  0.56413077  0.12967800  0.05097049    -0.08490
C1338       C  0.54147152  0.16947237  0.04738458    -0.05870
C1339       C  0.55584578  0.20166399  0.03160649     0.00070
C1340       C  0.59523216  0.19375227  0.02051994    -0.08400
C1341       C  0.60982758  0.22396013  0.50767415     0.61980
H1342       H  0.64742931  0.14470379  0.51180673     0.12670
H1343       H  0.51223057  0.17557612  0.05756772     0.12690
C1344       C  0.55034979  0.09701928  0.07546593     0.62210
F1345       F  0.64835844  0.21262566  0.49747241    -0.22950
F1346       F  0.60694571  0.24882649  0.53183444    -0.20280
F1347       F  0.58754265  0.24478216  0.47712348    -0.19960
F1348       F  0.57906122  0.07673090  0.10124834    -0.20010
F1349       F  0.54280208  0.07121156  0.05612141    -0.20330
F1350       F  0.51673366  0.11197033  0.09347390    -0.23010
C1351       C  0.00863135  0.07883717  0.83584934     0.76390
Tb1352     Tb  0.58032322  0.46301397  0.74698188     1.80740
O1353       O  0.97952131  0.06670266  0.83241425    -0.51630
O1354       O  0.95238341  0.01229912  0.83901556    -0.59080
C1355       C  0.53745978  0.05446478  0.75137100     0.92200
O1356       O  0.62909129  0.99151963  0.71644856    -0.58610
Tb1357     Tb  0.01542075  0.00498082  0.81951185     1.78060
O1358       O  0.05955126  0.44008602  0.70095465    -0.59110
O1359       O  0.05722947  0.43588049  0.84308891    -0.77910
O1360       O  0.51106929  0.03753587  0.75986589    -0.77230
O1361       O  0.58332720  0.00017948  0.82780702    -0.62500
C1362       C  0.06088242  0.40655459  0.82776709     0.91790
O1363       O  0.01951012  0.44724616  0.76513389    -0.74450
C1364       C  0.03259065  0.47155325  0.68875212     0.75230
C1365       C  0.96685766  0.47769198  0.87493382     0.76210
O1366       O  0.54036653  0.05092053  0.84147352    -0.59690
O1367       O  0.98558914  0.50149251  0.87874561    -0.51640
O1368       O  0.62012554  0.45573237  0.79680439    -0.77700
O1369       O  0.97896474  0.00263038  0.77035224    -0.61700
C1370       C  0.98657574  0.97220505  0.75622495     0.90010
C1371       C  0.61573058  0.47909662  0.81886732     0.91240
C1372       C  0.64444999  0.46612852  0.70060590     0.75580
O1373       O  0.03258657  0.50064892  0.70317144    -0.51030
O1374       O  0.63424495  0.43433585  0.71159318    -0.52180
O1375       O  0.57618640  0.40667546  0.79475899    -0.65030
O1376       O  0.57127888  0.03188995  0.74823732    -0.66170
C1377       C  0.96691574  0.31437809  0.60260069     0.76390
Tb1378     Tb  0.95654477  0.23492768  0.48389989     1.80740
O1379       O  0.48997923  0.29485225  0.58170784    -0.51630
O1380       O  0.50866451  0.35947510  0.53550772    -0.59080
C1381       C  0.93214147  0.25531417  0.56396668     0.92200
O1382       O  0.92960093  0.18199606  0.50580180    -0.58610
Tb1383     Tb  0.97699650  0.32119309  0.52855234     1.78060
O1384       O  0.50458688  0.21964808  0.93963343    -0.59110
O1385       O  0.00716321  0.31368386  0.97155138    -0.77910
O1386       O  0.92641654  0.29058311  0.54556309    -0.77230
O1387       O  0.91416759  0.33524780  0.50222034    -0.62500
C1388       C  0.99801720  0.30663794  0.94155667     0.91790
O1389       O  0.49121223  0.22668638  0.53718926    -0.74450
C1390       C  0.52040073  0.18376431  0.95400480     0.75230
C1391       C  0.49447137  0.39008250  0.51179567     0.76210
O1392       O  0.94790749  0.34421925  0.57964050    -0.59690
O1393       O  0.97347639  0.38474066  0.49282294    -0.51640
O1394       O  0.90071631  0.29125049  0.47292141    -0.77700
O1395       O  0.52885300  0.26494915  0.52248666    -0.61700
C1396       C  0.52521870  0.23019147  0.53356685     0.90010
C1397       C  0.89109166  0.32395390  0.48447962     0.91240
C1398       C  0.90103207  0.19202439  0.98432357     0.75580
O1399       O  0.48886851  0.17856755  0.46511462    -0.51030
O1400       O  0.90109233  0.22298776  0.96061262    -0.52180
O1401       O  0.97388680  0.28614120  0.93991640    -0.65030
O1402       O  0.94838224  0.22634424  0.54851810    -0.66170
C1403       C  0.62946427  0.07546829  0.53513908     0.76390
Tb1404     Tb  0.75342123  0.04109625  0.98191642     1.80740
O1405       O  0.61349034  0.04892406  0.53277067    -0.51630
O1406       O  0.61514434  0.49440454  0.97892841    -0.59170
C1407       C  0.67615515  0.08984826  0.45372690     0.92200
O1408       O  0.76469202  0.10560211  0.46209611    -0.58610
Tb1409     Tb  0.66697780  0.00513639  0.50842494     1.78060
O1410       O  0.82011742  0.51153691  0.98385336    -0.59110
O1411       O  0.71818561  0.45127668  0.00435059    -0.77910
O1412       O  0.68454084  0.05574669  0.47355478    -0.77230
O1413       O  0.71724944  0.97393221  0.54931165    -0.62500
C1414       C  0.75512580  0.44622236  0.00098461     0.91790
O1415       O  0.73151056  0.01363543  0.93449333    -0.74450
C1416       C  0.82470582  0.01099939  0.95085129     0.75230
C1417       C  0.60303788  0.47571807  0.50835569     0.76210
O1418       O  0.66449979  0.06613540  0.52622583    -0.59690
O1419       O  0.62165128  0.47294055  0.53684577    -0.51640
O1420       O  0.73473964  0.02875658  0.54597590    -0.77700
O1421       O  0.67422118  0.00006300  0.94914578    -0.61700
C1422       C  0.70268765  0.00082806  0.92785304     0.90010
C1423       C  0.72508529  0.99823275  0.56521496     0.91240
C1424       C  0.78929303  0.10173094  0.48633832     0.75580
O1425       O  0.79307587  0.02514020  0.93316555    -0.51030
O1426       O  0.79296586  0.07002933  0.51009298    -0.52180
O1427       O  0.77113029  0.47350037  0.00160004    -0.65030
O1428       O  0.70646157  0.10017333  0.44665276    -0.66170
C1429       C  0.82840286  0.34355928  0.51548832    -0.05840
C1430       C  0.84983277  0.34800234  0.48335121     0.00080
C1431       C  0.83468890  0.38072683  0.95491376    -0.08490
C1432       C  0.80215187  0.41137025  0.96133989    -0.05870
C1433       C  0.78203298  0.40848454  0.99425205     0.00070
C1434       C  0.79428009  0.37326432  0.52123417    -0.08400
C1435       C  0.77234106  0.36837290  0.55638987     0.61980
H1436       H  0.84002359  0.31785950  0.53697759     0.12670
H1437       H  0.79297681  0.43871449  0.94097081     0.12690
C1438       C  0.85434731  0.38375359  0.91864563     0.62210
F1439       F  0.78799956  0.33142086  0.57870690    -0.22950
F1440       F  0.73389022  0.37191139  0.54895016    -0.20280
F1441       F  0.77369705  0.39757766  0.57476469    -0.19960
F1442       F  0.85943279  0.34860573  0.90669703    -0.20010
F1443       F  0.89015070  0.39016101  0.92213300    -0.20330
F1444       F  0.83212081  0.41454589  0.89286200    -0.23010
C1445       C  0.85079679  0.17291740  0.95460200    -0.05840
C1446       C  0.87089163  0.17100240  0.48605438     0.00080
C1447       C  0.86118063  0.14792333  0.51890034    -0.08490
C1448       C  0.83295769  0.12750329  0.51789511    -0.05870
C1449       C  0.81414216  0.12917794  0.48554149     0.00070
C1450       C  0.82303146  0.15189173  0.95376485    -0.08400
C1451       C  0.80485421  0.15389542  0.91759147     0.61980
H1452       H  0.85806345  0.19086598  0.92982614     0.12670
H1453       H  0.82603104  0.10903924  0.54251863     0.12690
C1454       C  0.87998844  0.14490786  0.55510061     0.62210
F1455       F  0.81917209  0.17711459  0.88915068    -0.22950
F1456       F  0.76497261  0.17049368  0.91841528    -0.20280
F1457       F  0.81293014  0.11590240  0.91055891    -0.19960
F1458       F  0.87646500  0.18275630  0.56090117    -0.20010
F1459       F  0.91896628  0.12382901  0.55532715    -0.20330
F1460       F  0.86258964  0.12530495  0.58382047    -0.23010
C1461       C  0.54091399  0.46417934  0.53147619    -0.05840
C1462       C  0.57173847  0.45761805  0.50727386     0.00080
C1463       C  0.56793922  0.43817276  0.98091205    -0.08490
C1464       C  0.54111295  0.41882331  0.47965804    -0.05870
C1465       C  0.51173391  0.42276604  0.50532926     0.00070
C1466       C  0.51124085  0.44567602  0.53180850    -0.08400
C1467       C  0.97779175  0.45895059  0.56281559     0.61980
H1468       H  0.54085432  0.48244341  0.55107933     0.12670
H1469       H  0.53397313  0.40713209  0.95954859     0.12690
C1470       C  0.60427767  0.42025611  0.96115128     0.62210
F1471       F  0.46462996  0.99959084  0.55888791    -0.22950
F1472       F  0.99614653  0.44207527  0.59614869    -0.20280
F1473       F  0.94789220  0.44282892  0.05975638    -0.19960
F1474       F  0.64170157  0.40576808  0.48570007    -0.20010
F1475       F  0.60991817  0.44812028  0.93146186    -0.20330
F1476       F  0.60128511  0.38697953  0.94981765    -0.23010
C1477       C  0.60514346  0.09718189  0.45212245    -0.05840
C1478       C  0.63543907  0.11528693  0.44394041     0.00080
C1479       C  0.62701278  0.15689278  0.92990432    -0.08490
C1480       C  0.58748041  0.17881193  0.93132509    -0.05870
C1481       C  0.55833259  0.15966574  0.94248581     0.00070
C1482       C  0.56598658  0.11964291  0.45391342    -0.08400
C1483       C  0.53522718  0.09805178  0.46618673     0.61980
H1484       H  0.61277859  0.06506505  0.45984259     0.12670
H1485       H  0.57952712  0.21112219  0.92627280     0.12690
C1486       C  0.65734835  0.17883545  0.91717929     0.62210
F1487       F  0.54998136  0.05716146  0.46987748    -0.22950
F1488       F  0.50673596  0.11577971  0.92609121    -0.20280
F1489       F  0.52090099  0.10549134  0.49944154    -0.19960
F1490       F  0.67809546  0.16358421  0.88907339    -0.20010
F1491       F  0.68125435  0.17639830  0.44253995    -0.20330
F1492       F  0.64047262  0.21932340  0.90461845    -0.23010
C1493       C  0.86370072  0.48338478  0.90215190    -0.05840
C1494       C  0.86227565  0.99625345  0.93386746     0.00080
C1495       C  0.89823290  0.99674741  0.94788278    -0.08490
C1496       C  0.93183340  0.98661741  0.92737382    -0.05870
C1497       C  0.93323930  0.47386823  0.89757587     0.00070
C1498       C  0.89806353  0.47273837  0.88269344    -0.08400
C1499       C  0.89600746  0.46315948  0.84556241     0.61980
H1500       H  0.83619983  0.48428616  0.89077784     0.12670
H1501       H  0.95932670  0.98875390  0.93631658     0.12690
C1502       C  0.90081504  0.01215145  0.98192912     0.62210
F1503       F  0.85900066  0.46250581  0.83723080    -0.22950
F1504       F  0.92127221  0.42596948  0.84473296    -0.20280
F1505       F  0.90593299  0.49178286  0.81905885    -0.19960
F1506       F  0.89083211  0.99130394  0.51208340    -0.20010
F1507       F  0.87636513  0.05049746  0.97843385    -0.20330
F1508       F  0.93806345  0.01371473  0.98803643    -0.23010
C1509       C  0.68982716  0.01701859  0.86148309    -0.05840
C1510       C  0.69903800  0.98772378  0.89351216     0.00080
C1511       C  0.69064371  0.45087232  0.89316172    -0.08490
C1512       C  0.66606309  0.44799566  0.86661701    -0.05870
C1513       C  0.65154056  0.97981752  0.83944513     0.00070
C1514       C  0.66796860  0.01239435  0.83329361    -0.08400
C1515       C  0.66716227  0.03977858  0.79668908     0.61980
H1516       H  0.69808416  0.04438083  0.85908421     0.12670
H1517       H  0.65854458  0.42069699  0.86783992     0.12690
C1518       C  0.71005149  0.41336656  0.92046497     0.62210
F1519       F  0.70482659  0.03363525  0.78396148    -0.22950
F1520       F  0.65321780  0.07914602  0.79973326    -0.20280
F1521       F  0.64485897  0.03252134  0.77149598    -0.19960
F1522       F  0.69733224  0.38110248  0.91705313    -0.20010
F1523       F  0.70262116  0.41895610  0.95523316    -0.20330
F1524       F  0.74959555  0.40358267  0.91461998    -0.23010
C1525       C  0.66960575  0.99408452  0.60337671    -0.05840
C1526       C  0.70821130  0.99584077  0.60263844     0.00080
C1527       C  0.72657238  0.48527963  0.63508954    -0.08490
C1528       C  0.70692998  0.47345859  0.66763943    -0.05870
C1529       C  0.66709889  0.47486099  0.66705303     0.00070
C1530       C  0.65119247  0.98036730  0.63468370    -0.08400
C1531       C  0.61011160  0.97776411  0.63172845     0.61980
H1532       H  0.65444348  0.00062592  0.57800471     0.12670
H1533       H  0.72267774  0.46199053  0.69324370     0.12690
C1534       C  0.77020591  0.47862556  0.63521971     0.62210
F1535       F  0.59590949  0.98854125  0.59667167    -0.22950
F1536       F  0.58614326  0.00364833  0.65091452    -0.20280
F1537       F  0.60328237  0.45023979  0.64151693    -0.19960
F1538       F  0.77750156  0.01761324  0.62240477    -0.20010
F1539       F  0.78743217  0.45354205  0.61207742    -0.20330
F1540       F  0.78638171  0.46145782  0.66948334    -0.23010
C1541       C  0.98705486  0.43633375  0.68436294    -0.05840
C1542       C  0.99754981  0.47130094  0.66911859     0.00080
C1543       C  0.96671962  0.50591026  0.67057356    -0.08490
C1544       C  0.95073149  0.00466532  0.69954612    -0.05870
C1545       C  0.96021251  0.96999798  0.72760917     0.00070
C1546       C  0.96834557  0.43564496  0.71822043    -0.08400
C1547       C  0.96226262  0.39755271  0.73997720     0.61980
H1548       H  0.00032677  0.40881901  0.67517624     0.12670
H1549       H  0.93521593  0.03348451  0.70536484     0.12690
C1550       C  0.46613467  0.03932585  0.63769601     0.62210
F1551       F  0.94023672  0.38325100  0.71981517    -0.22950
F1552       F  0.94265769  0.40415730  0.77151219    -0.20280
F1553       F  0.99785135  0.36934758  0.74858657    -0.19960
F1554       F  0.42845927  0.05151778  0.62405355    -0.20010
F1555       F  0.49158714  0.52982797  0.60810218    -0.20330
F1556       F  0.47332760  0.06992313  0.65074620    -0.23010
C1557       C  0.98092539  0.13599442  0.79051718    -0.05840
C1558       C  0.00882358  0.12057248  0.81874125     0.00080
C1559       C  0.54691271  0.12157365  0.80660538    -0.08490
C1560       C  0.55869095  0.10507531  0.77535510    -0.05870
C1561       C  0.53018068  0.09661644  0.75594036     0.00070
C1562       C  0.99007689  0.11972751  0.75903127    -0.08400
C1563       C  0.95726839  0.12130852  0.73465070     0.61980
H1564       H  0.95068169  0.14855771  0.79681729     0.12670
H1565       H  0.58919278  0.09351570  0.77009416     0.12690
C1566       C  0.57607896  0.12567921  0.83190931     0.62210
F1567       F  0.93589289  0.16062367  0.72253799    -0.22950
F1568       F  0.93304582  0.10036438  0.75372118    -0.20280
F1569       F  0.97132148  0.10492888  0.70497861    -0.19960
F1570       F  0.59837626  0.58824407  0.84762882    -0.20010
F1571       F  0.55715754  0.14599939  0.85801318    -0.20330
F1572       F  0.59993092  0.14692122  0.81267015    -0.23010
C1573       C  0.01662442  0.36198494  0.84497588    -0.05840
C1574       C  0.05186034  0.37016295  0.85066452     0.00080
C1575       C  0.57197006  0.34801462  0.87899074    -0.08490
C1576       C  0.55474736  0.32722257  0.90837287    -0.05870
C1577       C  0.01752895  0.32370997  0.90757961     0.00070
C1578       C  0.00026608  0.33711864  0.87214216    -0.08400
C1579       C  0.96476458  0.32582676  0.86296196     0.61980
H1580       H  0.00107237  0.37664746  0.81966101     0.12670
H1581       H  0.56978014  0.31694465  0.93427545     0.12690
C1582       C  0.61209582  0.35243890  0.88260199     0.62210
F1583       F  0.93394993  0.34061584  0.88409201    -0.22950
F1584       F  0.97309796  0.28467913  0.86911011    -0.20280
F1585       F  0.95350747  0.34075906  0.82701893    -0.19960
F1586       F  0.60870828  0.39194330  0.88207802    -0.20010
F1587       F  0.63457130  0.34117324  0.85375779    -0.20330
F1588       F  0.63080308  0.32900499  0.91434098    -0.23010
C1589       C  0.46029552  0.26757558  0.64422237    -0.05840
C1590       C  0.94905682  0.29885556  0.63706470     0.00080
C1591       C  0.90827198  0.30774767  0.63249555    -0.08490
C1592       C  0.89554235  0.28351679  0.61319948    -0.05870
C1593       C  0.92375137  0.25042445  0.60365879     0.00070
C1594       C  0.44823847  0.24123052  0.62706843    -0.08400
C1595       C  0.47343884  0.19896063  0.63170224     0.61980
H1596       H  0.48779799  0.25737351  0.65898265     0.12670
H1597       H  0.86719136  0.29445313  0.59998644     0.12690
C1598       C  0.88113433  0.34541438  0.64143247     0.62210
F1599       F  0.47586725  0.18115497  0.66799364    -0.22950
F1600       F  0.51049620  0.19910704  0.61986628    -0.20280
F1601       F  0.45850987  0.17703891  0.61291132    -0.19960
F1602       F  0.89103583  0.37866036  0.62220988    -0.20010
F1603       F  0.88402721  0.34416802  0.67806379    -0.20330
F1604       F  0.84281160  0.34919771  0.63315461    -0.23010
C1605       C  0.62010095  0.14904850  0.52610445    -0.05840
C1606       C  0.60835788  0.11512406  0.54299320     0.00080
C1607       C  0.57426261  0.12053755  0.56373662    -0.08490
C1608       C  0.54896895  0.15877593  0.56058708    -0.05870
C1609       C  0.55812824  0.19281719  0.54054202     0.00070
C1610       C  0.59581099  0.18825751  0.52539854    -0.08400
C1611       C  0.61361618  0.22730854  0.00659687     0.61980
H1612       H  0.64624217  0.14727432  0.01075587     0.12670
H1613       H  0.52073429  0.16165817  0.57286835     0.12690
C1614       C  0.56551842  0.08661364  0.59079174     0.62210
F1615       F  0.65170842  0.21330768  0.99615059    -0.22950
F1616       F  0.61395557  0.24812479  0.03349641    -0.20280
F1617       F  0.59254475  0.25286281  0.97702465    -0.19960
F1618       F  0.59913387  0.06535906  0.61049874    -0.20010
F1619       F  0.55269349  0.06237415  0.57314472    -0.20330
F1620       F  0.53715780  0.10017070  0.61498372    -0.23010
C1621       C  0.00616256  0.57821743  0.33735377     0.76390
Tb1622     Tb  0.57823377  0.96555970  0.24771464     1.80740
O1623       O  0.97854146  0.56423110  0.33273618    -0.51630
O1624       O  0.97700745  0.46246006  0.34751006    -0.59080
C1625       C  0.53636023  0.55511331  0.25028670     0.92200
O1626       O  0.62629356  0.49385320  0.21584711    -0.58610
Tb1627     Tb  0.01834497  0.50206539  0.32400701     1.78060
O1628       O  0.06246233  0.93626235  0.20061600    -0.59110
O1629       O  0.03656640  0.93499293  0.33541108    -0.77910
O1630       O  0.50969797  0.53850019  0.25846941    -0.77230
O1631       O  0.58233038  0.50022563  0.32690134    -0.62500
C1632       C  0.05651095  0.90416698  0.32423538     0.91790
O1633       O  0.01974296  0.94678509  0.26148462    -0.74450
C1634       C  0.03577981  0.96756453  0.18727693     0.75230
C1635       C  0.96028371  0.98683847  0.36845395     0.76210
O1636       O  0.54003329  0.55103261  0.33970181    -0.59690
O1637       O  0.99555508  0.96654161  0.37170270    -0.51640
O1638       O  0.62084946  0.95779442  0.29565399    -0.77700
O1639       O  0.97857240  0.50180570  0.27621985    -0.61700
C1640       C  0.98596660  0.47247620  0.26057786     0.90010
C1641       C  0.61723828  0.98106203  0.31771688     0.91240
C1642       C  0.64268141  0.96686922  0.20150120     0.75580
O1643       O  0.03498763  0.99712088  0.20131315    -0.51030
O1644       O  0.63123176  0.93577275  0.21207504    -0.52180
O1645       O  0.56870310  0.90989097  0.29323068    -0.65030
O1646       O  0.57017056  0.53221428  0.24786892    -0.66170
C1647       C  0.96756256  0.81583945  0.10090357     0.76390
Tb1648     Tb  0.95637055  0.73397882  0.98416722     1.80740
O1649       O  0.49642164  0.79332461  0.08792468    -0.51630
O1650       O  0.49781237  0.87157056  0.04419475    -0.59080
C1651       C  0.93358383  0.75496574  0.06403125     0.92200
O1652       O  0.92893049  0.68136131  0.00602304    -0.58610
Tb1653     Tb  0.97781403  0.82122404  0.02698437     1.78060
O1654       O  0.50489499  0.72101281  0.43928168    -0.59110
O1655       O  0.00799687  0.81310907  0.46951795    -0.77910
O1656       O  0.92776104  0.79004934  0.04514989    -0.77230
O1657       O  0.91464959  0.83552039  0.00138388    -0.62500
C1658       C  0.99954368  0.80418774  0.44014541     0.91790
O1659       O  0.49364077  0.75309098  0.01952182    -0.74450
C1660       C  0.52017368  0.68485200  0.45311939     0.75230
C1661       C  0.48959818  0.89645680  0.01496287     0.76210
O1662       O  0.94813309  0.84499860  0.07756335    -0.59690
O1663       O  0.97386380  0.88485240  0.99103721    -0.51640
O1664       O  0.90036336  0.79042939  0.97404442    -0.77700
O1665       O  0.53784890  0.77078870  0.03817481    -0.61700
C1666       C  0.52873076  0.74270542  0.02942681     0.90010
C1667       C  0.89113533  0.82368526  0.98471102     0.91240
C1668       C  0.90200453  0.69084945  0.48430363     0.75580
O1669       O  0.50213292  0.67258732  0.98156418    -0.51030
O1670       O  0.90222230  0.72198720  0.46093394    -0.52180
O1671       O  0.97595114  0.78291751  0.43937364    -0.65030
O1672       O  0.94914537  0.72565873  0.04881744    -0.66170
C1673       C  0.62337567  0.58138984  0.02874120     0.76390
Tb1674     Tb  0.75340198  0.54154434  0.48028994     1.80740
O1675       O  0.60787173  0.55508071  0.02473576    -0.51630
O1676       O  0.61864680  0.99153258  0.47871645    -0.59170
C1677       C  0.67686905  0.59001159  0.95116499     0.92200
O1678       O  0.76460852  0.60492124  0.96086764    -0.58610
Tb1679     Tb  0.66384386  0.50852684  0.00705883     1.78060
O1680       O  0.82014146  0.00924603  0.48512174    -0.59110
O1681       O  0.72108481  0.94667334  0.50988426    -0.77910
O1682       O  0.68458850  0.55657325  0.97200529    -0.77230
O1683       O  0.71108629  0.47793538  0.05073846    -0.62500
C1684       C  0.75554357  0.94402154  0.49724239     0.91790
O1685       O  0.73113474  0.51425206  0.43293362    -0.74450
C1686       C  0.82564046  0.51078662  0.45090406     0.75230
C1687       C  0.60190210  0.97709046  0.00837721     0.76210
O1688       O  0.65950188  0.57062979  0.02395909    -0.59690
O1689       O  0.61985390  0.97461786  0.03716881    -0.51640
O1690       O  0.73087922  0.53220070  0.04411656    -0.77700
O1691       O  0.67424463  0.49997665  0.44816432    -0.61700
C1692       C  0.70244729  0.50109487  0.42657544     0.90010
C1693       C  0.72054433  0.50283293  0.06477193     0.91240
C1694       C  0.78869606  0.60152701  0.98536811     0.75580
O1695       O  0.79460867  0.52549148  0.43234721    -0.51030
O1696       O  0.79194167  0.57016799  0.00934588    -0.52180
O1697       O  0.76846533  0.97410030  0.48771809    -0.65030
O1698       O  0.70754597  0.59957015  0.94392824    -0.66170
C1699       C  0.82877569  0.84322459  0.01641721    -0.05840
C1700       C  0.84987958  0.84781396  0.98407705     0.00080
C1701       C  0.83642486  0.87770871  0.45323166    -0.08490
C1702       C  0.80364561  0.90818903  0.45904412    -0.05870
C1703       C  0.78322344  0.90598177  0.49186324     0.00070
C1704       C  0.79480324  0.87294970  0.02257453    -0.08400
C1705       C  0.77308477  0.86777534  0.05782692     0.61980
H1706       H  0.84049348  0.81734049  0.03769916     0.12670
H1707       H  0.79453217  0.93510394  0.43816781     0.12690
C1708       C  0.85642557  0.88049006  0.41712207     0.62210
F1709       F  0.78883376  0.83068438  0.07988844    -0.22950
F1710       F  0.73457526  0.87140762  0.05053367    -0.20280
F1711       F  0.77460358  0.89677418  0.07639405    -0.19960
F1712       F  0.86189029  0.84509631  0.40551403    -0.20010
F1713       F  0.89201892  0.88737901  0.42063777    -0.20330
F1714       F  0.83422415  0.91093973  0.39107876    -0.23010
C1715       C  0.85212745  0.67221520  0.45376985    -0.05840
C1716       C  0.87030055  0.67063163  0.98573307     0.00080
C1717       C  0.85988545  0.64810043  0.01854769    -0.08490
C1718       C  0.83167238  0.62773430  0.01729084    -0.05870
C1719       C  0.81351630  0.62896916  0.98470991     0.00070
C1720       C  0.82411507  0.65162584  0.45244360    -0.08400
C1721       C  0.80666557  0.65364972  0.41591407     0.61980
H1722       H  0.86017595  0.68972837  0.42911117     0.12670
H1723       H  0.82424210  0.60965018  0.04191428     0.12690
C1724       C  0.87793214  0.64563457  0.05496656     0.62210
F1725       F  0.82144101  0.67686703  0.38782509    -0.22950
F1726       F  0.76673913  0.67028245  0.41609066    -0.20280
F1727       F  0.81504055  0.61566664  0.40880482    -0.19960
F1728       F  0.87446020  0.68367109  0.06024894    -0.20010
F1729       F  0.91686309  0.62421860  0.05606415    -0.20330
F1730       F  0.85979553  0.62671525  0.08353789    -0.23010
C1731       C  0.53849643  0.96957206  0.03164984    -0.05840
C1732       C  0.56884618  0.96142516  0.00719707     0.00080
C1733       C  0.57056705  0.93485913  0.48140357    -0.08490
C1734       C  0.53425510  0.92588275  0.97967790    -0.05870
C1735       C  0.50622252  0.92977882  0.00664351     0.00070
C1736       C  0.50756621  0.95266594  0.03269804    -0.08400
C1737       C  0.97778622  0.95854691  0.06133768     0.61980
H1738       H  0.53988361  0.98757396  0.05109415     0.12670
H1739       H  0.53646436  0.90304454  0.46134716     0.12690
C1740       C  0.60702907  0.91591057  0.46234201     0.62210
F1741       F  0.46141848  0.49944291  0.05941285    -0.22950
F1742       F  0.99629057  0.94129636  0.09454338    -0.20280
F1743       F  0.94761254  0.94217896  0.55829415    -0.19960
F1744       F  0.63599316  0.90714397  0.98431628    -0.20010
F1745       F  0.61309044  0.94286332  0.43208841    -0.20330
F1746       F  0.60387748  0.88210024  0.45207083    -0.23010
C1747       C  0.60639209  0.59666996  0.94467014    -0.05840
C1748       C  0.63641598  0.61538184  0.94009994     0.00080
C1749       C  0.62689923  0.65753381  0.42936668    -0.08490
C1750       C  0.58740837  0.67958284  0.43074166    -0.05870
C1751       C  0.55811501  0.66059068  0.44171185     0.00070
C1752       C  0.56695063  0.61843515  0.94583241    -0.08400
C1753       C  0.53559870  0.59683134  0.95094591     0.61980
H1754       H  0.61419028  0.56451870  0.94982951     0.12670
H1755       H  0.57959146  0.71188270  0.42578853     0.12690
C1756       C  0.65737685  0.67938735  0.41694181     0.62210
F1757       F  0.54998852  0.55796941  0.94609586    -0.22950
F1758       F  0.50633462  0.61687896  0.42522274    -0.20280
F1759       F  0.52069766  0.59563018  0.98541753    -0.19960
F1760       F  0.67812219  0.66436149  0.38873078    -0.20010
F1761       F  0.68201015  0.67486797  0.94446945    -0.20330
F1762       F  0.64066659  0.71994941  0.40463921    -0.23010
C1763       C  0.86178911  0.98542514  0.40247123    -0.05840
C1764       C  0.86377206  0.49523432  0.43508997     0.00080
C1765       C  0.89920697  0.49517881  0.45031802    -0.08490
C1766       C  0.93373150  0.48261396  0.43177772    -0.05870
C1767       C  0.93000847  0.98009808  0.39369907     0.00070
C1768       C  0.89476102  0.97704365  0.38100917    -0.08400
C1769       C  0.89194560  0.96612018  0.34454431     0.61980
H1770       H  0.83403934  0.98464399  0.39286872     0.12670
H1771       H  0.96104403  0.48333594  0.44237809     0.12690
C1772       C  0.90055387  0.51228761  0.48363272     0.62210
F1773       F  0.85586171  0.96127629  0.33895494    -0.22950
F1774       F  0.92001142  0.93067048  0.34305208    -0.20280
F1775       F  0.89756832  0.99578405  0.31652095    -0.19960
F1776       F  0.88869791  0.48954551  0.01369282    -0.20010
F1777       F  0.87614535  0.55079179  0.47843566    -0.20330
F1778       F  0.93753526  0.51417261  0.49033455    -0.23010
C1779       C  0.68898635  0.51729478  0.36026729    -0.05840
C1780       C  0.69865976  0.48798460  0.39221722     0.00080
C1781       C  0.69133573  0.95316606  0.39187068    -0.08490
C1782       C  0.66789512  0.95011533  0.36451585    -0.05870
C1783       C  0.65051224  0.47990987  0.33870647     0.00070
C1784       C  0.66700701  0.51248306  0.33226359    -0.08400
C1785       C  0.66610922  0.53973811  0.29557729     0.61980
H1786       H  0.69712261  0.54474010  0.35773471     0.12670
H1787       H  0.66076641  0.92270917  0.36511038     0.12690
C1788       C  0.70993346  0.91550344  0.41939878     0.62210
F1789       F  0.70371367  0.53339904  0.28267281    -0.22950
F1790       F  0.65239196  0.57915249  0.29851789    -0.20280
F1791       F  0.64357240  0.53251969  0.27057647    -0.19960
F1792       F  0.69580523  0.88395512  0.41652238    -0.20010
F1793       F  0.70328957  0.92143614  0.45417441    -0.20330
F1794       F  0.74933002  0.90429841  0.41310961    -0.23010
C1795       C  0.66496259  0.50638320  0.10334828    -0.05840
C1796       C  0.70491864  0.50273536  0.10223756     0.00080
C1797       C  0.72530159  0.98530712  0.13650296    -0.08490
C1798       C  0.70539039  0.97375476  0.16893543    -0.05870
C1799       C  0.66560725  0.97504061  0.16807730     0.00070
C1800       C  0.64670344  0.49063321  0.13386535    -0.08400
C1801       C  0.60518908  0.48966003  0.13027785     0.61980
H1802       H  0.64870392  0.51718692  0.07833418     0.12670
H1803       H  0.72089146  0.96259633  0.19467854     0.12690
C1804       C  0.76891210  0.97875872  0.13693874     0.62210
F1805       F  0.59098231  0.50269604  0.09512934    -0.22950
F1806       F  0.58187798  0.51426479  0.15102362    -0.20280
F1807       F  0.60154207  0.95060248  0.14231291    -0.19960
F1808       F  0.77899202  0.51423297  0.12347730    -0.20010
F1809       F  0.78645447  0.95341213  0.11410900    -0.20330
F1810       F  0.78479242  0.96194898  0.17135764    -0.23010
C1811       C  0.99036988  0.93240951  0.18208576    -0.05840
C1812       C  0.00154696  0.96695156  0.16669636     0.00080
C1813       C  0.97069149  0.00207353  0.16638112    -0.08490
C1814       C  0.94860536  0.50709505  0.20467308    -0.05870
C1815       C  0.95913907  0.47154622  0.23175954     0.00070
C1816       C  0.96993479  0.93302079  0.21502674    -0.08400
C1817       C  0.96315054  0.89544381  0.23727057     0.61980
H1818       H  0.00429207  0.90434440  0.17406375     0.12670
H1819       H  0.93361544  0.53548124  0.21162759     0.12690
C1820       C  0.46633445  0.53979777  0.13598925     0.62210
F1821       F  0.94135353  0.88089461  0.21711383    -0.22950
F1822       F  0.94305056  0.90284011  0.26842240    -0.20280
F1823       F  0.99846598  0.86703917  0.24667422    -0.19960
F1824       F  0.42880422  0.55221915  0.12197682    -0.20010
F1825       F  0.48175220  0.03675276  0.11129928    -0.20330
F1826       F  0.47353781  0.57027694  0.14923565    -0.23010
C1827       C  0.97678023  0.63567869  0.29277345    -0.05840
C1828       C  0.00487192  0.62051765  0.32082216     0.00080
C1829       C  0.54637813  0.62198466  0.30538617    -0.08490
C1830       C  0.55796416  0.60566530  0.27400210    -0.05870
C1831       C  0.52930854  0.59729893  0.25466148     0.00070
C1832       C  0.98654872  0.62066139  0.26071269    -0.08400
C1833       C  0.95445747  0.62292568  0.23531820     0.61980
H1834       H  0.94642375  0.64742614  0.29917674     0.12670
H1835       H  0.58843018  0.59416406  0.26856398     0.12690
C1836       C  0.57564535  0.62595549  0.33066861     0.62210
F1837       F  0.93326978  0.66237684  0.22359434    -0.22950
F1838       F  0.92990304  0.60159013  0.25306304    -0.20280
F1839       F  0.96955758  0.60740062  0.20550738    -0.19960
F1840       F  0.59449343  0.08831353  0.35083122    -0.20010
F1841       F  0.55682820  0.64638838  0.35674262    -0.20330
F1842       F  0.59963133  0.64701921  0.31141092    -0.23010
C1843       C  0.01701669  0.85594596  0.34207232    -0.05840
C1844       C  0.05163120  0.86572956  0.34662164     0.00080
C1845       C  0.57289532  0.84953136  0.38206166    -0.08490
C1846       C  0.55480774  0.82884640  0.41069122    -0.05870
C1847       C  0.01885083  0.82016486  0.40556069     0.00070
C1848       C  0.00129615  0.83175584  0.37025313    -0.08400
C1849       C  0.96556446  0.82011642  0.36226416     0.61980
H1850       H  0.00099174  0.86955811  0.31684295     0.12670
H1851       H  0.56983867  0.81694377  0.43651170     0.12690
C1852       C  0.61511892  0.84832740  0.38509583     0.62210
F1853       F  0.93516612  0.83572708  0.38343252    -0.22950
F1854       F  0.97379168  0.77894386  0.36948348    -0.20280
F1855       F  0.95369580  0.83410196  0.32634412    -0.19960
F1856       F  0.61758633  0.88598211  0.38533114    -0.20010
F1857       F  0.63513030  0.83561792  0.35559519    -0.20330
F1858       F  0.63287560  0.82242454  0.41624514    -0.23010
C1859       C  0.46798093  0.75908051  0.14791196    -0.05840
C1860       C  0.95005468  0.80064569  0.13569030     0.00080
C1861       C  0.90930193  0.80883740  0.13141641    -0.08490
C1862       C  0.89691162  0.78376466  0.11287424    -0.05870
C1863       C  0.92542087  0.75065088  0.10373538     0.00070
C1864       C  0.45740018  0.73365464  0.12856308    -0.08400
C1865       C  0.48300695  0.69185396  0.13144466     0.61980
H1866       H  0.49547009  0.74895829  0.16268067     0.12670
H1867       H  0.86846467  0.79399393  0.09987724     0.12690
C1868       C  0.88173628  0.84651400  0.13990637     0.62210
F1869       F  0.48841939  0.67305221  0.16748928    -0.22950
F1870       F  0.51889938  0.69277365  0.11680735    -0.20280
F1871       F  0.46609241  0.67053119  0.11377624    -0.19960
F1872       F  0.89101944  0.87982059  0.12001679    -0.20010
F1873       F  0.88473565  0.84604533  0.17636876    -0.20330
F1874       F  0.84351025  0.84947432  0.13203115    -0.23010
C1875       C  0.61691670  0.65412417  0.02092151    -0.05840
C1876       C  0.60131906  0.62194205  0.03433607     0.00080
C1877       C  0.56405592  0.62989265  0.05023881    -0.08490
C1878       C  0.54129165  0.66963740  0.04668549    -0.05870
C1879       C  0.55562364  0.70192633  0.03116740     0.00070
C1880       C  0.59502590  0.69412344  0.02010724    -0.08400
C1881       C  0.61306250  0.72716432  0.50698810     0.61980
H1882       H  0.64578942  0.64728101  0.51073650     0.12670
H1883       H  0.51200272  0.67562250  0.05675303     0.12690
C1884       C  0.55037544  0.59718404  0.07475523     0.62210
F1885       F  0.65118488  0.71326652  0.49655778    -0.22950
F1886       F  0.61329652  0.74775067  0.53408548    -0.20280
F1887       F  0.59205376  0.75286435  0.47747655    -0.19960
F1888       F  0.57904663  0.57709674  0.10061902    -0.20010
F1889       F  0.54302310  0.57122616  0.05547951    -0.20330
F1890       F  0.51667480  0.61206917  0.09266124    -0.23010
C1891       C  0.00608100  0.57790024  0.83750188     0.76390
Tb1892     Tb  0.58183100  0.96276499  0.74774425     1.80740
O1893       O  0.97844164  0.56392636  0.83291227    -0.51630
O1894       O  0.97679995  0.46228349  0.84772814    -0.59080
C1895       C  0.53620354  0.55483200  0.75026995     0.92200
O1896       O  0.62578440  0.49383036  0.71569519    -0.58610
Tb1897     Tb  0.01820298  0.50177000  0.82412647     1.78060
O1898       O  0.06286474  0.93670193  0.70084590    -0.59110
O1899       O  0.03682119  0.93536451  0.83556230    -0.77910
O1900       O  0.50955881  0.53819615  0.75852979    -0.77230
O1901       O  0.58226530  0.50024481  0.82685342    -0.62500
C1902       C  0.05663164  0.90452247  0.82437589     0.91790
O1903       O  0.02030036  0.94717277  0.76152191    -0.74450
C1904       C  0.03622724  0.96804232  0.68750066     0.75230
C1905       C  0.96015953  0.98656263  0.86792696     0.76210
O1906       O  0.54031250  0.55072730  0.83983789    -0.59690
O1907       O  0.99607061  0.97008681  0.87399592    -0.51640
O1908       O  0.62116525  0.95557749  0.79785872    -0.77700
O1909       O  0.97837458  0.50158215  0.77633393    -0.61700
C1910       C  0.98573574  0.47225192  0.76069443     0.90010
C1911       C  0.61676651  0.97899575  0.81985657     0.91240
C1912       C  0.64734068  0.96308111  0.70204099     0.75580
O1913       O  0.03550202  0.99758809  0.70153909    -0.51030
O1914       O  0.63581561  0.93215929  0.71336423    -0.52180
O1915       O  0.57699176  0.90652960  0.79547096    -0.65030
O1916       O  0.56998620  0.53197256  0.74769172    -0.66170
C1917       C  0.96717636  0.81603291  0.60049666     0.76390
Tb1918     Tb  0.95774162  0.73267636  0.48434791     1.80740
O1919       O  0.49595946  0.79287797  0.58836793    -0.51630
O1920       O  0.49745782  0.87157803  0.54439973    -0.59080
C1921       C  0.93366669  0.75488902  0.56379020     0.92200
O1922       O  0.93046931  0.67984150  0.50607612    -0.58610
Tb1923     Tb  0.97779496  0.82127021  0.52663402     1.78060
O1924       O  0.50394543  0.72037394  0.93959232    -0.59110
O1925       O  0.00782885  0.81307751  0.96978728    -0.77910
O1926       O  0.92779953  0.78993552  0.54476622    -0.77230
O1927       O  0.91518193  0.83384889  0.50058023    -0.62500
C1928       C  0.99861586  0.80505938  0.94024693     0.91790
O1929       O  0.49341653  0.75286711  0.51952483    -0.74450
C1930       C  0.51967849  0.68439609  0.95372141     0.75230
C1931       C  0.49063829  0.89566298  0.51460157     0.76210
O1932       O  0.94784022  0.84515632  0.57705703    -0.59690
O1933       O  0.97349576  0.88504939  0.49072728    -0.51640
O1934       O  0.90197937  0.78859980  0.47270712    -0.77700
O1935       O  0.53745210  0.77003772  0.53909404    -0.61700
C1936       C  0.52837870  0.74220268  0.52981893     0.90010
C1937       C  0.89225746  0.82170843  0.48349280     0.91240
C1938       C  0.90073109  0.69208427  0.98400201     0.75580
O1939       O  0.50206598  0.67295816  0.48049600    -0.51030
O1940       O  0.90113906  0.72302164  0.96042784    -0.52180
O1941       O  0.97436472  0.78451944  0.93937816    -0.65030
O1942       O  0.94965526  0.72542372  0.54886729    -0.66170
C1943       C  0.62303977  0.58091562  0.52881729     0.76390
Tb1944     Tb  0.75293978  0.54202055  0.97995928     1.80740
O1945       O  0.60767749  0.55465316  0.52438033    -0.51630
O1946       O  0.61533662  0.99378772  0.97998974    -0.59170
C1947       C  0.67732286  0.58974723  0.45152924     0.92200
O1948       O  0.76518017  0.60443721  0.46132095    -0.58610
Tb1949     Tb  0.66404144  0.50819494  0.50719685     1.78060
O1950       O  0.82070766  0.01138734  0.98400112    -0.59110
O1951       O  0.71863173  0.95114813  0.00484293    -0.77910
O1952       O  0.68490289  0.55625813  0.47228431    -0.77230
O1953       O  0.71124533  0.47780152  0.55091544    -0.62500
C1954       C  0.75567964  0.94593458  0.00303063     0.91790
O1955       O  0.73075517  0.51458946  0.93269626    -0.74450
C1956       C  0.82532311  0.51143999  0.95074302     0.75230
C1957       C  0.60455323  0.97502181  0.50681213     0.76210
O1958       O  0.65924409  0.57017886  0.52447756    -0.59690
O1959       O  0.62209078  0.97225666  0.53580978    -0.51640
O1960       O  0.73090167  0.53212362  0.54431878    -0.77700
O1961       O  0.67387897  0.50038236  0.94806094    -0.61700
C1962       C  0.70205105  0.50141588  0.92644845     0.90010
C1963       C  0.72049469  0.50279373  0.56495768     0.91240
C1964       C  0.78940186  0.60089315  0.48575007     0.75580
O1965       O  0.79437780  0.52632429  0.93207843    -0.51030
O1966       O  0.79267204  0.56946556  0.50963708    -0.52180
O1967       O  0.77138793  0.97286811  0.00579538    -0.65030
O1968       O  0.70806664  0.59921162  0.44441656    -0.66170
C1969       C  0.82941282  0.84141391  0.51408066    -0.05840
C1970       C  0.85105104  0.84544663  0.48203278     0.00080
C1971       C  0.83479508  0.88086568  0.95595885    -0.08490
C1972       C  0.80253161  0.91157074  0.96287111    -0.05870
C1973       C  0.78282113  0.90845571  0.99595030     0.00070
C1974       C  0.79508175  0.87115083  0.51935151    -0.08400
C1975       C  0.77352525  0.86685646  0.55480048     0.61980
H1976       H  0.84110147  0.81607784  0.53588286     0.12670
H1977       H  0.79312580  0.93901081  0.94266048     0.12690
C1978       C  0.85353768  0.88394296  0.91929273     0.62210
F1979       F  0.78982510  0.83049768  0.57777125    -0.22950
F1980       F  0.73517108  0.86936804  0.54805411    -0.20280
F1981       F  0.77463592  0.89689664  0.57223590    -0.19960
F1982       F  0.85889886  0.84854619  0.90770268    -0.20010
F1983       F  0.88910997  0.89128408  0.92164192    -0.20330
F1984       F  0.83019817  0.91419797  0.89386616    -0.23010
C1985       C  0.85107551  0.67319277  0.95342416    -0.05840
C1986       C  0.87145254  0.66953590  0.48605934     0.00080
C1987       C  0.86093671  0.64712921  0.51888468    -0.08490
C1988       C  0.83259580  0.62689918  0.51765736    -0.05870
C1989       C  0.81434865  0.62822620  0.48509059     0.00070
C1990       C  0.82324302  0.65240572  0.95206652    -0.08400
C1991       C  0.80595841  0.65425866  0.91550883     0.61980
H1992       H  0.85907567  0.69075820  0.92877357     0.12670
H1993       H  0.82511961  0.60886925  0.54229282     0.12690
C1994       C  0.87897595  0.64472463  0.55528315     0.62210
F1995       F  0.82071650  0.67750367  0.88742924    -0.22950
F1996       F  0.76600509  0.67074296  0.91557248    -0.20280
F1997       F  0.81454265  0.61622805  0.90847404    -0.19960
F1998       F  0.87567196  0.68277947  0.56042532    -0.20010
F1999       F  0.91786075  0.62315241  0.55646067    -0.20330
F2000       F  0.86070441  0.62602033  0.58388289    -0.23010
C2001       C  0.54053379  0.96907339  0.52937907    -0.05840
C2002       C  0.57123466  0.95981455  0.50546393     0.00080
C2003       C  0.56761661  0.93801861  0.98182677    -0.08490
C2004       C  0.53721561  0.92257935  0.47959741    -0.05870
C2005       C  0.50849780  0.92808874  0.50588148     0.00070
C2006       C  0.50957637  0.95212432  0.53100358    -0.08400
C2007       C  0.97751327  0.95880055  0.56109904     0.61980
H2008       H  0.54173706  0.98793522  0.54810602     0.12670
H2009       H  0.53314459  0.90741466  0.96053890     0.12690
C2010       C  0.60362645  0.92028310  0.96157163     0.62210
F2011       F  0.46426593  0.48990855  0.56130086    -0.22950
F2012       F  0.99604223  0.94137468  0.59427564    -0.20280
F2013       F  0.94798980  0.94177014  0.05859052    -0.19960
F2014       F  0.63900959  0.90389118  0.48550183    -0.20010
F2015       F  0.60920562  0.94845307  0.93211118    -0.20330
F2016       F  0.60015749  0.88743452  0.94978061    -0.23010
C2017       C  0.60680769  0.59672519  0.44469043    -0.05840
C2018       C  0.63694831  0.61527327  0.44034036     0.00080
C2019       C  0.62617347  0.65764752  0.92916839    -0.08490
C2020       C  0.58666414  0.67952517  0.93083057    -0.05870
C2021       C  0.55755302  0.66034004  0.94203735     0.00070
C2022       C  0.56738045  0.61866681  0.44557782    -0.08400
C2023       C  0.53592254  0.59719915  0.45049964     0.61980
H2024       H  0.61448522  0.56455900  0.44988726     0.12670
H2025       H  0.57871022  0.71182901  0.92592544     0.12690
C2026       C  0.65646747  0.67966943  0.91649058     0.62210
F2027       F  0.55027226  0.55829329  0.44574707    -0.22950
F2028       F  0.50583067  0.61646724  0.92584074    -0.20280
F2029       F  0.52078936  0.59610798  0.48487702    -0.19960
F2030       F  0.67700026  0.66475772  0.88813437    -0.20010
F2031       F  0.68268775  0.67452613  0.44512783    -0.20330
F2032       F  0.63956496  0.72021426  0.90429269    -0.23010
C2033       C  0.86119249  0.98499792  0.90059077    -0.05840
C2034       C  0.86347035  0.49574097  0.93503364     0.00080
C2035       C  0.89889495  0.49563619  0.95030216    -0.08490
C2036       C  0.93345405  0.48287059  0.93186980    -0.05870
C2037       C  0.92952061  0.97962078  0.89271187     0.00070
C2038       C  0.89446801  0.97668820  0.87952872    -0.08400
C2039       C  0.89147951  0.96807916  0.84215174     0.61980
H2040       H  0.83354394  0.98519640  0.88997821     0.12670
H2041       H  0.96076830  0.48355295  0.94249954     0.12690
C2042       C  0.90020073  0.51287253  0.98354698     0.62210
F2043       F  0.85955781  0.95441819  0.83919102    -0.22950
F2044       F  0.92444743  0.93909403  0.83537612    -0.20280
F2045       F  0.88761039  0.00259131  0.81602306    -0.19960
F2046       F  0.88913592  0.48884189  0.51374392    -0.20010
F2047       F  0.87582837  0.55140464  0.97822909    -0.20330
F2048       F  0.93719190  0.51471918  0.99027078    -0.23010
C2049       C  0.68887819  0.51738961  0.86010409    -0.05840
C2050       C  0.69816973  0.48821356  0.89219439     0.00080
C2051       C  0.69143206  0.95044923  0.89433487    -0.08490
C2052       C  0.66697002  0.94770461  0.86763524    -0.05870
C2053       C  0.65053648  0.48001981  0.83837549     0.00070
C2054       C  0.66699982  0.51258908  0.83201881    -0.08400
C2055       C  0.66635736  0.53966550  0.79527505     0.61980
H2056       H  0.69715179  0.54476281  0.85754661     0.12670
H2057       H  0.65938417  0.92046770  0.86874317     0.12690
C2058       C  0.71048266  0.91291080  0.92176579     0.62210
F2059       F  0.70404048  0.53311773  0.78254884    -0.22950
F2060       F  0.65272105  0.57914436  0.79802067    -0.20280
F2061       F  0.64389893  0.53239281  0.77023424    -0.19960
F2062       F  0.69782433  0.88070234  0.91806688    -0.20010
F2063       F  0.70255863  0.91850280  0.95647841    -0.20330
F2064       F  0.75010831  0.90302308  0.91641473    -0.23010
C2065       C  0.66472523  0.50606048  0.60330468    -0.05840
C2066       C  0.70463201  0.50274292  0.60233088     0.00080
C2067       C  0.72918226  0.98353929  0.63610323    -0.08490
C2068       C  0.70941679  0.97263844  0.66896114    -0.05870
C2069       C  0.67067417  0.97011450  0.66844401     0.00070
C2070       C  0.64644223  0.49029609  0.63380078    -0.08400
C2071       C  0.60499849  0.48908032  0.63014017     0.61980
H2072       H  0.64856726  0.51661116  0.57823057     0.12670
H2073       H  0.72430434  0.96509991  0.69491166     0.12690
C2074       C  0.77209809  0.98056815  0.63666548     0.62210
F2075       F  0.59091070  0.50192118  0.59493246    -0.22950
F2076       F  0.58147609  0.51369606  0.65075978    -0.20280
F2077       F  0.60899794  0.93900898  0.64517857    -0.19960
F2078       F  0.77838453  0.51482360  0.62366034    -0.20010
F2079       F  0.79211146  0.95370926  0.61600016    -0.20330
F2080       F  0.78756046  0.96763173  0.67151686    -0.23010
C2081       C  0.99078517  0.93296953  0.68220964    -0.05840
C2082       C  0.00200429  0.96749563  0.66685682     0.00080
C2083       C  0.97115701  0.00262249  0.66655456    -0.08490
C2084       C  0.94848556  0.50689134  0.70471851    -0.05870
C2085       C  0.95894380  0.47135553  0.73182747     0.00070
C2086       C  0.97029576  0.93359141  0.71512076    -0.08400
C2087       C  0.96322596  0.89609679  0.73722621     0.61980
H2088       H  0.00462677  0.90491893  0.67413285     0.12670
H2089       H  0.93353202  0.53529801  0.71165159     0.12690
C2090       C  0.46630579  0.53886900  0.63595238     0.62210
F2091       F  0.94159481  0.88161601  0.71683895    -0.22950
F2092       F  0.94279139  0.90362402  0.76817662    -0.20280
F2093       F  0.99841702  0.86759609  0.74694024    -0.19960
F2094       F  0.42855015  0.55200264  0.62243016    -0.20010
F2095       F  0.49174925  0.03098528  0.60992941    -0.20330
F2096       F  0.47457359  0.56903492  0.64890447    -0.23010
C2097       C  0.97662945  0.63540264  0.79298959    -0.05840
C2098       C  0.00477804  0.62020699  0.82098915     0.00080
C2099       C  0.54668353  0.62162385  0.80535482    -0.08490
C2100       C  0.55805885  0.60525777  0.77396769    -0.05870
C2101       C  0.52924770  0.59695017  0.75477164     0.00070
C2102       C  0.98632097  0.62042903  0.76089887    -0.08400
C2103       C  0.95416780  0.62269429  0.73557298     0.61980
H2104       H  0.94628898  0.64713492  0.79945225     0.12670
H2105       H  0.58848914  0.59369562  0.76842034     0.12690
C2106       C  0.57610735  0.62561473  0.83046400     0.62210
F2107       F  0.93290093  0.66213516  0.72395084    -0.22950
F2108       F  0.92970151  0.60127161  0.75335299    -0.20280
F2109       F  0.96919783  0.60726648  0.70569441    -0.19960
F2110       F  0.59842371  0.08835143  0.84910062    -0.20010
F2111       F  0.55746420  0.64602101  0.85661836    -0.20330
F2112       F  0.59997987  0.64671506  0.81104956    -0.23010
C2113       C  0.01596520  0.85746106  0.84230404    -0.05840
C2114       C  0.05120680  0.86620818  0.84664351     0.00080
C2115       C  0.57241083  0.84772578  0.87979707    -0.08490
C2116       C  0.55476444  0.82735684  0.90912864    -0.05870
C2117       C  0.01784512  0.82113609  0.90563021     0.00070
C2118       C  0.99981476  0.83369585  0.87051453    -0.08400
C2119       C  0.96306211  0.82362684  0.86283285     0.61980
H2120       H  0.99978579  0.87166516  0.81723913     0.12670
H2121       H  0.56959290  0.81712968  0.93511505     0.12690
C2122       C  0.61281688  0.85141674  0.88351648     0.62210
F2123       F  0.93346275  0.83972421  0.88457718    -0.22950
F2124       F  0.96998344  0.78259776  0.86955391    -0.20280
F2125       F  0.95070391  0.83848115  0.82711957    -0.19960
F2126       F  0.61019173  0.89084012  0.88254461    -0.20010
F2127       F  0.63529901  0.83935198  0.85495510    -0.20330
F2128       F  0.63107089  0.82814725  0.91550950    -0.23010
C2129       C  0.46680356  0.75834954  0.64773216    -0.05840
C2130       C  0.94954912  0.80101242  0.63527318     0.00080
C2131       C  0.90882233  0.80917842  0.63084156    -0.08490
C2132       C  0.89657153  0.78400980  0.61230609    -0.05870
C2133       C  0.92516490  0.75079641  0.60342442     0.00070
C2134       C  0.45625475  0.73324177  0.62798515    -0.08400
C2135       C  0.48180083  0.69145398  0.63059016     0.61980
H2136       H  0.49421138  0.74797071  0.66264813     0.12670
H2137       H  0.86822479  0.79422177  0.59911559     0.12690
C2138       C  0.88118807  0.84691461  0.63914468     0.62210
F2139       F  0.48699283  0.67226873  0.66653933    -0.22950
F2140       F  0.51778771  0.69243953  0.61623078    -0.20280
F2141       F  0.46495998  0.67044316  0.61248476    -0.19960
F2142       F  0.89054539  0.88016726  0.61922888    -0.20010
F2143       F  0.88400877  0.84658702  0.67559869    -0.20330
F2144       F  0.84300634  0.84984585  0.63112971    -0.23010
C2145       C  0.61652389  0.65359611  0.52129947    -0.05840
C2146       C  0.60082424  0.62142441  0.53438964     0.00080
C2147       C  0.56337863  0.62935640  0.54993770    -0.08490
C2148       C  0.54063386  0.66911778  0.54639751    -0.05870
C2149       C  0.55517173  0.70140711  0.53136827     0.00070
C2150       C  0.59465051  0.69357909  0.52055080    -0.08400
C2151       C  0.61335116  0.72773347  0.00631145     0.61980
H2152       H  0.64609075  0.64780408  0.01015231     0.12670
H2153       H  0.51122103  0.67512063  0.55616578     0.12690
C2154       C  0.54949325  0.59661798  0.57419618     0.62210
F2155       F  0.65143461  0.71384540  0.99578149    -0.22950
F2156       F  0.61368286  0.74843826  0.03329793    -0.20280
F2157       F  0.59221485  0.75333124  0.97681778    -0.19960
F2158       F  0.57780980  0.57663341  0.60041115    -0.20010
F2159       F  0.54262412  0.57053327  0.55479799    -0.20330
F2160       F  0.51546107  0.61148419  0.59166933    -0.23010
loop_ 
_geom_bond_atom_site_label_1 
_geom_bond_atom_site_label_2 
_geom_bond_distance 
_geom_bond_site_symmetry_2 
_ccdc_geom_bond_type 
C1            O3   1.262       .  A
C1         O1096   1.263       .  A
C1          C208   1.495       .  S
Tb2          O24   2.399       .  S
Tb2          O25   2.430       .  S
Tb2          O18   2.344       .  S
Tb2        O1088   2.352       .  S
Tb2        O1093   2.402       .  S
Tb2         O546   2.354       .  S
Tb2         O566   2.387       .  S
Tb2        O1103   2.327       .  S
O3           Tb7   2.349       .  S
O4          C555   1.256       .  A
O4           Tb7   2.349   1_565  S
C5           O10   1.256       .  A
C5           O26   1.264       .  A
C5          C211   1.498       .  S
O6          C562   1.255       .  A
O6         Tb542   2.354       .  S
Tb7          O19   2.353       .  S
Tb7        O1091   2.382       .  S
Tb7        O1096   2.342       .  S
Tb7        O1090   2.327       .  S
Tb7         O557   2.319       .  S
Tb7         O549   2.347   1_545  S
O8           C14   1.270       .  A
O8        Tb1082   2.356       .  S
O9           C12   1.272       .  A
O9         Tb547   2.337       .  S
O10       Tb1087   2.319       .  S
O11         C561   1.282       .  A
O11       Tb1087   2.391   1_565  S
C12        O1105   1.296       .  A
C12         C224   1.506       .  S
O13         C560   1.276       .  A
O13       Tb1082   2.409       .  S
C14          O23   1.271       .  A
C14         C192   1.490       .  S
C15          O17   1.261       .  A
C15         O544   1.253       .  A
C15         C147   1.447       .  S
O16        C1081   1.264       .  A
O16       Tb1087   2.344       .  S
O17        Tb547   2.353       .  S
O18          C21   1.274       .  A
O19          C20   1.266   1_545  A
C20         O553   1.276       .  A
C20         C195   1.496       .  S
C21         O551   1.279       .  A
C21         C703   1.487       .  S
C22          O24   1.272       .  A
C22         O546   1.255       .  A
C22         C179   1.495       .  S
O23       Tb1082   2.326       .  S
O25        C1092   1.290       .  A
O26        Tb542   2.388   1_545  S
C27          O42   1.265       .  A
C27        O1109   1.270       .  A
C27         C240   1.492       .  S
Tb28         O44   2.380       .  S
Tb28         O32   2.345   1_556  S
Tb28         O52   2.406   1_556  S
Tb28        O320   2.373       .  S
Tb28        O321   2.408       .  S
Tb28       O1384   2.377       .  S
Tb28       O1119   2.251   1_556  S
Tb28       O1129   2.367       .  S
O29        C1107   1.270       .  A
O29       Tb1113   2.336       .  S
O30          C41   1.249       .  A
O30       Tb1113   2.323       .  S
C31          O36   1.268       .  A
C31          O52   1.276       .  A
C31         C243   1.498       .  S
O32         C318   1.258   1_554  A
Tb33         O37   2.376       .  S
Tb33         O42   2.340       .  S
Tb33         O36   2.371       .  S
Tb33         O43   2.356   1_554  S
Tb33       O1109   2.337       .  S
Tb33       O1110   2.322       .  S
Tb33       O1125   2.380       .  S
Tb33        O305   2.403   1_554  S
O34          C40   1.256       .  A
O34       Tb1378   2.378   1_455  S
O35          C38   1.275       .  A
O35        Tb303   2.354       .  S
O37          C47   1.284   1_554  A
C38          O51   1.289       .  A
C38         C227   1.527       .  S
O39          C46   1.255   1_655  A
O39       Tb1108   2.250   1_554  S
C40         O319   1.256       .  A
C40         C131   1.487       .  S
C41        O1123   1.257   1_554  A
C41         C115   1.448   1_655  S
O43        C1121   1.257   1_556  A
O44          C47   1.283       .  A
O45          C46   1.248       .  A
O45       Tb1113   2.382   1_455  S
C46         C259   1.489       .  S
C47          C80   1.480       .  S
C48          O50   1.264       .  A
C48         O302   1.256       .  A
C48         C366   1.491       .  S
O49         C310   1.256       .  A
O49       Tb1108   2.368   1_455  S
O50        Tb298   2.378       .  S
O51        Tb298   2.425       .  S
C53          O68   1.256       .  A
C53          O55   1.257       .  A
C53         C256   1.492       .  S
Tb54         O65   2.468       .  S
Tb54         O75   2.342       .  S
Tb54        O346   2.369       .  S
Tb54        O617   2.319   1_545  S
Tb54        O600   2.335       .  S
Tb54        O340   2.497       .  S
Tb54        O328   2.359       .  S
Tb54        O348   2.414       .  S
O55         Tb59   2.379       .  S
O56         C337   1.257       .  A
O56        Tb869   2.307       .  S
C57          O62   1.247       .  A
C57          O78   1.243       .  A
C57         C128   1.498       .  S
O58          C74   1.258       .  A
O58        Tb324   2.361       .  S
Tb59         O63   2.283   1_545  S
Tb59         O68   2.396       .  S
Tb59         O62   2.218   1_554  S
Tb59        O866   2.308   1_544  S
Tb59        O609   2.340   1_545  S
Tb59        O341   2.306   1_554  S
Tb59        O871   2.403   1_545  S
O60         C606   1.255       .  A
O60        Tb594   2.337       .  S
O61          C64   1.283       .  A
O61        Tb869   2.392       .  S
O63          C73   1.255   1_565  A
C64          O77   1.267       .  A
C64          C83   1.473       .  S
O65          C72   1.296       .  A
C66          O75   1.259       .  A
C66         O600   1.256       .  A
C66         C144   1.469   1_545  S
C67          O69   1.263       .  A
C67         O326   1.257   1_554  A
C67         C112   1.451       .  S
O69        Tb599   2.337       .  S
O70          C73   1.301       .  A
O70        Tb324   2.496   1_554  S
O71          C72   1.271       .  A
O71        Tb329   2.305       .  S
C72         C160   1.492   1_545  S
C73         C176   1.494       .  S
C74          O76   1.261   1_556  A
C74          C99   1.494       .  S
O76        Tb324   2.369   1_554  S
O77        Tb594   2.319       .  S
O78        Tb324   2.416       .  S
C79          C80   1.410   1_554  A
C79          C84   1.414       .  A
C79          H86   1.082       .  S
C80         C351   1.404       .  A
C81          C82   1.402       .  A
C81         C350   1.402       .  A
C81          C88   1.507       .  S
C82          C83   1.403       .  A
C82          H87   1.083       .  S
C83         C354   1.410       .  A
C84         C353   1.411   1_554  A
C84          C85   1.514       .  S
C85          F89   1.384       .  S
C85          F90   1.383       .  S
C85          F91   1.382       .  S
C88          F92   1.384       .  S
C88          F93   1.381       .  S
C88          F94   1.381       .  S
C95         C100   1.411       .  A
C95         C366   1.402       .  A
C95         H102   1.083       .  S
C96         C318   1.493       .  S
C96          C97   1.424   1_556  A
C96         C365   1.403       .  A
C97          C98   1.411       .  A
C97         C104   1.522       .  S
C98          C99   1.405   1_554  A
C98         H103   1.083       .  S
C99         C370   1.424       .  A
C100        C369   1.425       .  A
C100        C101   1.520       .  S
C101        F105   1.384       .  S
C101        F106   1.383       .  S
C101        F107   1.384       .  S
C104        F108   1.384       .  S
C104        F109   1.383       .  S
C104        F110   1.385       .  S
C111        C112   1.399       .  A
C111        C116   1.400       .  A
C111        H118   1.085       .  S
C112        C383   1.407   1_554  A
C113        C382   1.407       .  A
C113        C384   1.392       .  A
C113        C120   1.515       .  S
C114        C115   1.397   1_556  A
C114        C383   1.393       .  A
C114        H389   1.086       .  S
C115        C116   1.416       .  A
C116       C1197   1.516   1_455  S
C117       C1196   1.515       .  S
C117        F122   1.382       .  S
C117       F1741   1.383       .  S
C117        F393   1.382       .  S
H119        C384   1.086       .  S
C120        F125   1.382       .  S
C120        F126   1.379       .  S
C120        F394   1.384       .  S
F121       C1737   1.383       .  S
F123        C387   1.382       .  S
F124        C390   1.384       .  S
C127        C128   1.406       .  A
C127        C132   1.408       .  A
C127        H134   1.078       .  S
C128        C399   1.420       .  A
C129        C130   1.413       .  A
C129        C398   1.420       .  A
C129        C136   1.517       .  S
C130        C131   1.406       .  A
C130        H135   1.083       .  S
C131        C402   1.414       .  A
C132        C401   1.414       .  A
C132        C133   1.518       .  S
C133        F137   1.384       .  S
C133        F139   1.380       .  S
C133        F408   1.383       .  S
C136        F140   1.383       .  S
C136        F142   1.385       .  S
C136        F411   1.381       .  S
F138        C403   1.383       .  S
F141        C406   1.381       .  S
C143        C148   1.394       .  A
C143        C684   1.403       .  A
C143        H150   1.083       .  S
C144        C145   1.417       .  A
C144        C683   1.402       .  A
C145        C146   1.398       .  A
C145        C152   1.519   1_565  S
C146        C687   1.399       .  A
C146        H151   1.083       .  S
C147        C148   1.410       .  A
C147        C686   1.394       .  A
C148        C149   1.522       .  S
C149        F153   1.383       .  S
C149        F154   1.384       .  S
C149        F155   1.382       .  S
C152        F157   1.381       .  S
C152        F158   1.382       .  S
C152        F426   1.382   1_545  S
F156        C422   1.382   1_564  S
C159        C160   1.403   1_545  A
C159        C164   1.414       .  A
C159        H166   1.084       .  S
C160        C701   1.427       .  A
C161        C162   1.404       .  A
C161        C700   1.429       .  A
C161        C168   1.514       .  S
C162        C703   1.388       .  A
C162        H167   1.076       .  S
C163        C561   1.488       .  S
C163        C164   1.420   1_565  A
C163        C702   1.389       .  A
C164        C165   1.511       .  S
C165        F169   1.383       .  S
C165        F170   1.378       .  S
C165        F171   1.379       .  S
C168        F172   1.385       .  S
C168        F173   1.372       .  S
C168        F174   1.376       .  S
C175        C176   1.399       .  A
C175        C180   1.391   1_545  A
C175        H182   1.065       .  S
C176        C717   1.422   1_545  A
C177        C178   1.431       .  A
C177        C716   1.421       .  A
C177        C184   1.512       .  S
C178        C179   1.414       .  A
C178        H183   1.083       .  S
C179        C720   1.410       .  A
C180        C719   1.410       .  A
C180        C181   1.510       .  S
C181        F185   1.380   1_565  S
C181        F186   1.376   1_565  S
C181        F727   1.380       .  S
C184        F189   1.383       .  S
C184        F190   1.385       .  S
C184        F728   1.383       .  S
F187        C721   1.380       .  S
F188        C724   1.383   1_545  S
C191        C192   1.405       .  A
C191        C196   1.414       .  A
C191        H198   1.083       .  S
C192        C193   1.413       .  A
C193        C734   1.419       .  A
C193       C1820   1.504       .  S
C194        C195   1.418   1_545  A
C194        C733   1.420       .  A
C194        H199   1.083       .  S
C195        C736   1.421       .  A
C196        C735   1.421       .  A
C196        C197   1.501       .  S
C197        F201   1.383       .  S
C197        F202   1.383       .  S
C197        F203   1.383       .  S
C200       C1813   1.504       .  S
C200        F204   1.382       .  S
C200        F206   1.380       .  S
C200        F745   1.384       .  S
F205        C740   1.384       .  S
C207        C208   1.405       .  A
C207        C212   1.415       .  A
C207        H214   1.083       .  S
C208       C1289   1.410       .  A
C209        C210   1.423       .  A
C209       C1288   1.408       .  A
C209        C216   1.505       .  S
C210        C211   1.419       .  A
C210        H215   1.077       .  S
C211       C1292   1.429   1_455  A
C212       C1291   1.428       .  A
C212        C213   1.505       .  S
C213        F217   1.383       .  S
C213        F218   1.383       .  S
C213        F219   1.379       .  S
C216        F221   1.384       .  S
C216        F222   1.382       .  S
C216        F760   1.382       .  S
F220        C756   1.383       .  S
C223        C224   1.410       .  A
C223        C228   1.424       .  A
C223        H230   1.081       .  S
C224       C1305   1.408       .  A
C225        C226   1.414       .  A
C225       C1304   1.410       .  A
C225        C232   1.509       .  S
C226       C1307   1.413       .  A
C226        H231   1.079       .  S
C227        C228   1.425       .  A
C227       C1306   1.417       .  A
C228        C229   1.514       .  S
C229        F233   1.378       .  S
C229        F234   1.383       .  S
C229        F235   1.383       .  S
C232        F236   1.375       .  S
C232        F237   1.383       .  S
C232        F238   1.384       .  S
C239        C244   1.416       .  A
C239       C1320   1.404       .  A
C239        H246   1.083       .  S
C240        C241   1.414       .  A
C240       C1319   1.404       .  A
C241        C242   1.418       .  A
C241        C248   1.510       .  S
C242        C243   1.418       .  A
C242        H247   1.082       .  S
C243       C1324   1.424       .  A
C244       C1323   1.424       .  A
C244        C245   1.496       .  S
C245        F249   1.379       .  S
C245        F250   1.381   1_655  S
C245        F251   1.382       .  S
C248        F252   1.383       .  S
C248        F253   1.382       .  S
C248        F254   1.384       .  S
C255        C256   1.408       .  A
C255        C260   1.414       .  A
C255        H532   1.082       .  S
C256        C257   1.415       .  A
C257        C258   1.402       .  A
C257        C264   1.512       .  S
C258        C259   1.399       .  A
C258        H263   1.077       .  S
C259        C260   1.418       .  A
C260        C531   1.514       .  S
C261        C530   1.514       .  S
C261        F265   1.382       .  S
C261        F266   1.382       .  S
C261        F267   1.379       .  S
H262        C525   1.082       .  S
C264        F268   1.378       .  S
C264        F269   1.379       .  S
C264        F270   1.380       .  S
C271       O1366   1.263       .  A
C271        O273   1.259       .  A
C271        C478   1.494       .  S
Tb272       O294   2.399       .  S
Tb272       O295   2.429       .  S
Tb272      O1358   2.352       .  S
Tb272       O288   2.343       .  S
Tb272      O1363   2.402       .  S
Tb272       O816   2.352       .  S
Tb272       O836   2.388       .  S
Tb272      O1373   2.326       .  S
O273       Tb277   2.349       .  S
O274        C825   1.255   1_545  A
O274       Tb277   2.303       .  S
C275        O280   1.255       .  A
C275        O296   1.264       .  A
C275        C481   1.498       .  S
O276        C832   1.255       .  A
O276       Tb812   2.356       .  S
Tb277      O1361   2.389       .  S
Tb277      O1366   2.344       .  S
Tb277      O1360   2.319       .  S
Tb277       O827   2.353   1_545  S
Tb277       O289   2.347       .  S
Tb277       O819   2.334   1_545  S
O278        C284   1.270       .  A
O278      Tb1352   2.357       .  S
O279        C282   1.272       .  A
O279       Tb817   2.337       .  S
O280      Tb1357   2.318       .  S
O281        C831   1.282       .  A
O281      Tb1357   2.392   1_565  S
C282       O1375   1.296       .  A
C282        C494   1.505       .  S
O283        C830   1.276       .  A
O283      Tb1352   2.410       .  S
C284        O293   1.271       .  A
C284        C462   1.491       .  S
C285        O814   1.254       .  A
C285        O287   1.261       .  A
C285        C417   1.447       .  S
O286       C1351   1.263       .  A
O286      Tb1357   2.345       .  S
O287       Tb817   2.354       .  S
O288        C291   1.274       .  A
O289        C290   1.266   1_545  A
C290        O823   1.277       .  A
C290        C465   1.496       .  S
C291        O821   1.279       .  A
C291        C973   1.486       .  S
C292        O816   1.255       .  A
C292        O294   1.272       .  A
C292        C449   1.494       .  S
O293      Tb1352   2.325       .  S
O295       C1362   1.290       .  A
O296       Tb812   2.390   1_545  S
C297        O312   1.262       .  A
C297       O1379   1.270       .  A
C297        C510   1.494       .  S
Tb298      O1114   2.365       .  S
Tb298       O314   2.358       .  S
Tb298      O1389   2.317       .  S
Tb298       O302   2.349       .  S
Tb298       O322   2.395       .  S
Tb298      O1399   2.376       .  S
O299       C1377   1.270       .  A
O299      Tb1383   2.337       .  S
O300        C311   1.249       .  A
O300      Tb1383   2.322       .  S
C301        O306   1.265       .  A
C301        O322   1.272       .  A
C301        C513   1.497       .  S
Tb303      O1379   2.346       .  S
Tb303      O1380   2.312       .  S
Tb303       O307   2.361       .  S
Tb303       O312   2.348       .  S
Tb303       O306   2.368       .  S
Tb303       O313   2.356       .  S
Tb303      O1395   2.372       .  S
O304        C310   1.256       .  A
O304      Tb1108   2.379   1_455  S
O305        C308   1.288       .  A
O307        C317   1.277       .  A
C308        O321   1.292       .  A
C308        C497   1.528       .  S
O309        C316   1.255   1_655  A
O309      Tb1378   2.249       .  S
C310        C401   1.488       .  S
C311       O1393   1.257       .  A
C311        C385   1.447   1_655  S
O313       C1391   1.258       .  A
O314        C317   1.274       .  A
O315        C316   1.248       .  A
O315      Tb1383   2.383   1_455  S
C316        C529   1.489       .  S
C317        C350   1.475       .  S
C318        O320   1.266       .  A
O319      Tb1378   2.367   1_455  S
C323        O338   1.256       .  A
C323        O325   1.256       .  A
C323        C526   1.492       .  S
Tb324       O887   2.322   1_546  S
Tb324       O870   2.337       .  S
Tb324       O335   2.467       .  S
Tb324       O345   2.341       .  S
O325       Tb329   2.379       .  S
O326       Tb599   2.309   1_556  S
C327        O332   1.247       .  A
C327        O348   1.242       .  A
C327        C398   1.497       .  S
O328        C344   1.258       .  A
Tb329       O596   2.309   1_545  S
Tb329       O333   2.284   1_545  S
Tb329       O338   2.396       .  S
Tb329       O332   2.218       .  S
Tb329       O879   2.341   1_545  S
Tb329       O601   2.403   1_545  S
O330        C876   1.256       .  A
O330       Tb864   2.338       .  S
O331        C334   1.286       .  A
O331       Tb599   2.404       .  S
O333        C343   1.255   1_565  A
C334        O347   1.268       .  A
C334        C353   1.480   1_554  S
O335        C342   1.296       .  A
C336        O870   1.255       .  A
C336        O345   1.259       .  A
C336        C414   1.470   1_545  S
C337        O339   1.263       .  A
C337        C382   1.450       .  S
O339       Tb869   2.337       .  S
O340        C343   1.301       .  A
O341        C342   1.271       .  A
C342        C430   1.492   1_545  S
C343        C446   1.496       .  S
C344        O346   1.262       .  A
C344        C369   1.496       .  S
O347       Tb864   2.321   1_554  S
C349        C350   1.409       .  A
C349        C354   1.412       .  A
C349        H356   1.082       .  S
C351        C352   1.405       .  A
C351        C358   1.507       .  S
C352        C353   1.405       .  A
C352        H357   1.084       .  S
C354        C355   1.514       .  S
C355        F359   1.384       .  S
C355        F360   1.383       .  S
C355        F361   1.382       .  S
C358        F362   1.383       .  S
C358        F363   1.382       .  S
C358        F364   1.381       .  S
C365        C370   1.411       .  A
C365        H372   1.082       .  S
C366        C367   1.423       .  A
C367        C368   1.410       .  A
C367        C374   1.522       .  S
C368        C369   1.405       .  A
C368        H373   1.083       .  S
C370        C371   1.520       .  S
C371        F375   1.384       .  S
C371        F376   1.383       .  S
C371        F377   1.384       .  S
C374        F378   1.384       .  S
C374        F379   1.383       .  S
C374        F380   1.385       .  S
C381        C382   1.399       .  A
C381        C386   1.400       .  A
C381        H388   1.085       .  S
C383        C390   1.515       .  S
C384        C385   1.396       .  A
C385        C386   1.416       .  A
C386       C1467   1.516   1_455  S
C387       C1466   1.516       .  S
C387       F2011   1.383       .  S
C387        F392   1.382       .  S
C390        F395   1.382       .  S
C390        F396   1.379       .  S
F391       C2007   1.383       .  S
C397        C398   1.405       .  A
C397        C402   1.408       .  A
C397        H404   1.078       .  S
C399        C400   1.413       .  A
C399        C406   1.517       .  S
C400        C401   1.407       .  A
C400        H405   1.083       .  S
C402        C403   1.518       .  S
C403        F407   1.384       .  S
C403        F409   1.380       .  S
C406        F410   1.384       .  S
C406        F412   1.385       .  S
C413        C954   1.403       .  A
C413        C418   1.397       .  A
C413        H420   1.083       .  S
C414        C953   1.404       .  A
C414        C415   1.422       .  A
C415        C416   1.401       .  A
C415        C422   1.518   1_565  S
C416        C957   1.394       .  A
C416        H421   1.084       .  S
C417        C956   1.394       .  A
C417        C418   1.410       .  A
C418        C419   1.523       .  S
C419        F423   1.383       .  S
C419        F424   1.383       .  S
C419        F425   1.382       .  S
C422        F427   1.382       .  S
C422        F428   1.383       .  S
C429        C430   1.403   1_545  A
C429        C434   1.414       .  A
C429        H436   1.084       .  S
C430        C971   1.426       .  A
C431        C970   1.428       .  A
C431        C432   1.404       .  A
C431        C438   1.514       .  S
C432        C973   1.388       .  A
C432        H437   1.076       .  S
C433        C831   1.489       .  S
C433        C972   1.390       .  A
C433        C434   1.420   1_565  A
C434        C435   1.511       .  S
C435        F439   1.383       .  S
C435        F440   1.378       .  S
C435        F441   1.380       .  S
C438        F442   1.385       .  S
C438        F443   1.372       .  S
C438        F444   1.376       .  S
C445        C446   1.399       .  A
C445        C450   1.391   1_545  A
C445        H452   1.072       .  S
C446        C987   1.422   1_545  A
C447        C986   1.421       .  A
C447        C448   1.431       .  A
C447        C454   1.512       .  S
C448        C449   1.414       .  A
C448        H453   1.083       .  S
C449        C990   1.410       .  A
C450        C989   1.410       .  A
C450        C451   1.510       .  S
C451        F455   1.380   1_565  S
C451        F456   1.376   1_565  S
C451        F997   1.380       .  S
C454        F998   1.383       .  S
C454        F459   1.383       .  S
C454        F460   1.385       .  S
F457        C991   1.380       .  S
F458        C994   1.383   1_545  S
C461        C462   1.405       .  A
C461        C466   1.414       .  A
C461        H468   1.083       .  S
C462        C463   1.413       .  A
C463       C1004   1.419       .  A
C463       C2090   1.504       .  S
C464       C1003   1.418       .  A
C464        C465   1.417   1_545  A
C464        H469   1.083       .  S
C465       C1006   1.421       .  A
C466       C1005   1.420       .  A
C466        C467   1.501       .  S
C467        F471   1.383       .  S
C467        F472   1.384       .  S
C467        F473   1.382       .  S
C470       C2083   1.504       .  S
C470        F474   1.382       .  S
C470       F1015   1.384       .  S
C470        F476   1.380       .  S
F475       C1010   1.384       .  S
C477        C478   1.405       .  A
C477        C482   1.416       .  A
C477        H484   1.084       .  S
C478       C1559   1.409       .  A
C479       C1558   1.408       .  A
C479        C480   1.423       .  A
C479        C486   1.506       .  S
C480        C481   1.419       .  A
C480        H485   1.077       .  S
C481       C1562   1.430   1_455  A
C482       C1561   1.430       .  A
C482        C483   1.507       .  S
C483        F487   1.383       .  S
C483        F488   1.383       .  S
C483        F489   1.381       .  S
C486       F1030   1.382       .  S
C486        F491   1.384       .  S
C486        F492   1.382       .  S
F490       C1026   1.383       .  S
C493        C494   1.408       .  A
C493        C498   1.424       .  A
C493        H500   1.081       .  S
C494       C1575   1.408       .  A
C495       C1574   1.409       .  A
C495        C496   1.414       .  A
C495        C502   1.509       .  S
C496       C1577   1.413       .  A
C496        H501   1.079       .  S
C497       C1576   1.415       .  A
C497        C498   1.428       .  A
C498        C499   1.515       .  S
C499        F503   1.377       .  S
C499        F504   1.383       .  S
C499        F505   1.384       .  S
C502        F506   1.375       .  S
C502        F507   1.383       .  S
C502        F508   1.384       .  S
C509       C1590   1.404       .  A
C509        C514   1.416       .  A
C509        H516   1.083       .  S
C510       C1589   1.402       .  A
C510        C511   1.414       .  A
C511        C512   1.419       .  A
C511        C518   1.509       .  S
C512        C513   1.417       .  A
C512        H517   1.081       .  S
C513       C1594   1.428       .  A
C514       C1593   1.424       .  A
C514        C515   1.496       .  S
C515        F519   1.379       .  S
C515        F520   1.381   1_655  S
C515        F521   1.382       .  S
C518        F522   1.383       .  S
C518        F523   1.382       .  S
C518        F524   1.384       .  S
C525        C526   1.408       .  A
C525        C530   1.414       .  A
C526        C527   1.415       .  A
C527        C528   1.402       .  A
C527        C534   1.512       .  S
C528        C529   1.400       .  A
C528        H533   1.077       .  S
C529        C530   1.418       .  A
C531        F535   1.382   1_554  S
C531        F536   1.382       .  S
C531        F537   1.379   1_554  S
C534        F538   1.378       .  S
C534        F539   1.379       .  S
C534        F540   1.380       .  S
C541       O1636   1.263       .  A
C541        O543   1.259       .  A
C541        C748   1.495       .  S
Tb542       O564   2.401       .  S
Tb542       O565   2.432       .  S
Tb542      O1628   2.356       .  S
Tb542       O558   2.338       .  S
Tb542      O1633   2.409       .  S
Tb542      O1643   2.325       .  S
O543       Tb547   2.349       .  S
O544       Tb547   2.297       .  S
C545        O550   1.258       .  A
C545        O566   1.265       .  A
C545        C751   1.496       .  S
Tb547      O1631   2.389       .  S
Tb547      O1636   2.344       .  S
Tb547      O1630   2.318       .  S
Tb547       O559   2.349       .  S
O548        C554   1.268       .  A
O548      Tb1622   2.351       .  S
O549        C552   1.273       .  A
O550      Tb1627   2.328       .  S
O551      Tb1627   2.383       .  S
C552       O1645   1.290       .  A
C552        C764   1.510       .  S
O553      Tb1622   2.402       .  S
C554        O563   1.271   1_565  A
C554        C732   1.491       .  S
C555        O557   1.257   1_565  A
C555        C687   1.464       .  S
O556       C1621   1.263       .  A
O556      Tb1627   2.343       .  S
O558        C561   1.273       .  A
O559        C560   1.266       .  A
C560        C735   1.497       .  S
C562        O564   1.271       .  A
C562        C719   1.495       .  S
O563      Tb1622   2.328   1_545  S
O565       C1632   1.295       .  A
C567        O582   1.265       .  A
C567       O1649   1.270       .  A
C567        C780   1.492       .  S
Tb568       O860   2.374       .  S
Tb568       O861   2.409       .  S
Tb568      O1924   2.377       .  S
Tb568       O584   2.380       .  S
Tb568      O1659   2.251   1_556  S
Tb568       O572   2.344   1_556  S
Tb568       O592   2.406   1_556  S
Tb568      O1669   2.367       .  S
O569       C1647   1.270       .  A
O569      Tb1653   2.337       .  S
O570        C581   1.249       .  A
O570      Tb1653   2.322       .  S
C571        O576   1.268       .  A
C571        O592   1.276       .  A
C571        C783   1.498       .  S
O572        C858   1.258   1_554  A
Tb573      O1649   2.337       .  S
Tb573      O1650   2.322       .  S
Tb573       O577   2.378       .  S
Tb573       O582   2.340       .  S
Tb573       O576   2.371       .  S
Tb573       O583   2.356   1_554  S
Tb573      O1665   2.381       .  S
Tb573       O845   2.402   1_554  S
O574        C580   1.255       .  A
O574      Tb1918   2.372   1_455  S
O575        C578   1.287       .  A
O575       Tb843   2.397       .  S
O577        C587   1.285   1_554  A
C578        O591   1.293       .  A
C578        C767   1.528       .  S
O579        C586   1.255   1_655  A
O579      Tb1648   2.251   1_554  S
C580        O859   1.257       .  A
C580        C671   1.483       .  S
C581       O1663   1.257   1_554  A
C581        C655   1.448   1_655  S
O583       C1661   1.257   1_556  A
O584        C587   1.283       .  A
O585        C586   1.248       .  A
O585      Tb1653   2.381   1_455  S
C586        C799   1.489       .  S
C587        C620   1.481       .  S
C588        O842   1.257       .  A
C588        O590   1.267       .  A
C588        C906   1.494       .  S
O589        C850   1.256       .  A
O589      Tb1648   2.367   1_455  S
O590       Tb838   2.376       .  S
O591       Tb838   2.414       .  S
C593        O608   1.256       .  A
C593        O595   1.257       .  A
C593        C796   1.492       .  S
Tb594       O886   2.368       .  S
Tb594       O880   2.499       .  S
Tb594       O605   2.476       .  S
Tb594       O868   2.365       .  S
Tb594       O888   2.415       .  S
Tb594       O615   2.334       .  S
O595       Tb599   2.382       .  S
O596        C877   1.257       .  A
C597        O602   1.247       .  A
C597        O618   1.243       .  A
C597        C668   1.497       .  S
O598        C614   1.258       .  A
O598       Tb864   2.361       .  S
Tb599       O603   2.283       .  S
Tb599       O608   2.396       .  S
Tb599       O602   2.217   1_554  S
Tb599       O881   2.307   1_554  S
O601        C604   1.287       .  A
O603        C613   1.254       .  A
C604        O617   1.268       .  A
C604        C623   1.480       .  S
O605        C612   1.298       .  A
C606        O615   1.259       .  A
C606        C684   1.468       .  S
C607        O866   1.257   1_554  A
C607        O609   1.264       .  A
C607        C652   1.453       .  S
O610        C613   1.301       .  A
O610       Tb864   2.496   1_554  S
O611        C612   1.272       .  A
O611       Tb869   2.309       .  S
C612        C700   1.495       .  S
C613        C716   1.495       .  S
C614        O616   1.261   1_556  A
C614        C639   1.495       .  S
O616       Tb864   2.369   1_554  S
O618       Tb864   2.416       .  S
C619        C620   1.410   1_554  A
C619        C624   1.415       .  A
C619        H626   1.082       .  S
C620        C891   1.404       .  A
C621        C890   1.404       .  A
C621        C622   1.405       .  A
C621        C628   1.507       .  S
C622        C623   1.406       .  A
C622        H627   1.084       .  S
C623        C894   1.411       .  A
C624        C893   1.411   1_554  A
C624        C625   1.513       .  S
C625        F629   1.384       .  S
C625        F630   1.383       .  S
C625        F631   1.382       .  S
C628        F632   1.383       .  S
C628        F633   1.382       .  S
C628        F634   1.382       .  S
C635        C906   1.403       .  A
C635        C640   1.411       .  A
C635        H642   1.082       .  S
C636        C858   1.493       .  S
C636        C905   1.403       .  A
C636        C637   1.424   1_556  A
C637        C638   1.411       .  A
C637        C644   1.522       .  S
C638        C639   1.405   1_554  A
C638        H643   1.083       .  S
C639        C910   1.424       .  A
C640        C909   1.423       .  A
C640        C641   1.520       .  S
C641        F645   1.384       .  S
C641        F646   1.383       .  S
C641        F647   1.384       .  S
C644        F648   1.384       .  S
C644        F649   1.383       .  S
C644        F650   1.385       .  S
C651        C652   1.399       .  A
C651        C656   1.400       .  A
C651        H658   1.085       .  S
C652        C923   1.408   1_554  A
C653        C922   1.408       .  A
C653        C924   1.393       .  A
C653        C660   1.515       .  S
C654        C923   1.393       .  A
C654        C655   1.395   1_556  A
C654        H929   1.085       .  S
C655        C656   1.416       .  A
C656       C1737   1.515   1_455  S
C657       C1736   1.516       .  S
C657       F1201   1.383       .  S
C657        F662   1.382       .  S
C657        F933   1.382       .  S
H659        C924   1.086       .  S
C660        F934   1.384       .  S
C660        F665   1.381       .  S
C660        F666   1.378       .  S
F661       C1197   1.383       .  S
F663        C927   1.382       .  S
F664        C930   1.383       .  S
C667        C668   1.406       .  A
C667        C672   1.408       .  A
C667        H674   1.078       .  S
C668        C939   1.420       .  A
C669        C938   1.419       .  A
C669        C670   1.412       .  A
C669        C676   1.517       .  S
C670        C671   1.406       .  A
C670        H675   1.083       .  S
C671        C942   1.412       .  A
C672        C941   1.414       .  A
C672        C673   1.518       .  S
C673        F677   1.384       .  S
C673        F948   1.383       .  S
C673        F679   1.380       .  S
C676        F680   1.383       .  S
C676        F951   1.381       .  S
C676        F682   1.385       .  S
F678        C943   1.383       .  S
F681        C946   1.381       .  S
C683        C688   1.401       .  A
C683        H690   1.082       .  S
C684        C685   1.422       .  A
C685        C686   1.401       .  A
C685        C692   1.518       .  S
C686        H691   1.084       .  S
C687        C688   1.417       .  A
C688        C689   1.521       .  S
C689        F693   1.384       .  S
C689        F694   1.382       .  S
C689        F695   1.383       .  S
C692        F966   1.382       .  S
C692        F697   1.382       .  S
C692        F698   1.383       .  S
F696        C962   1.381   1_554  S
C699        C700   1.405       .  A
C699        C704   1.415       .  A
C699        H706   1.084       .  S
C701        C702   1.403       .  A
C701        C708   1.513       .  S
C702        H707   1.075       .  S
C703        C704   1.419       .  A
C704        C705   1.511       .  S
C705        F709   1.383       .  S
C705        F710   1.378       .  S
C705        F711   1.381       .  S
C708        F712   1.385       .  S
C708        F713   1.372       .  S
C708        F714   1.377       .  S
C715        C716   1.400       .  A
C715        C720   1.392       .  A
C715        H722   1.073       .  S
C717        C718   1.432       .  A
C717        C724   1.512       .  S
C718        C719   1.414       .  A
C718        H723   1.082       .  S
C720        C721   1.511       .  S
C721        F725   1.380       .  S
C721        F726   1.376       .  S
C724        F729   1.382       .  S
C724        F730   1.385       .  S
C731        C732   1.405       .  A
C731        C736   1.414       .  A
C731        H738   1.083       .  S
C732        C733   1.411   1_565  A
C733       C1280   1.504       .  S
C734        C735   1.417       .  A
C734        H739   1.083       .  S
C736        C737   1.500       .  S
C737        F741   1.383       .  S
C737        F742   1.383       .  S
C737        F743   1.383       .  S
C740       C1273   1.504       .  S
C740        F744   1.382       .  S
C740        F746   1.378       .  S
C747        C748   1.406       .  A
C747        C752   1.416       .  A
C747        H754   1.084       .  S
C748       C1829   1.408       .  A
C749       C1828   1.410       .  A
C749        C750   1.422       .  A
C749        C756   1.505       .  S
C750        C751   1.418       .  A
C750        H755   1.078       .  S
C751       C1832   1.428   1_455  A
C752       C1831   1.429       .  A
C752        C753   1.508       .  S
C753        F757   1.383       .  S
C753        F758   1.383       .  S
C753        F759   1.381       .  S
C756        F761   1.384       .  S
C756        F762   1.382       .  S
C763        C764   1.409       .  A
C763        C768   1.428       .  A
C763        H770   1.082       .  S
C764       C1845   1.410       .  A
C765       C1844   1.407       .  A
C765        C766   1.417       .  A
C765        C772   1.505       .  S
C766       C1847   1.415       .  A
C766        H771   1.080       .  S
C767       C1846   1.413       .  A
C767        C768   1.428       .  A
C768        C769   1.514       .  S
C769        F773   1.377       .  S
C769        F774   1.383       .  S
C769        F775   1.382       .  S
C772        F776   1.377       .  S
C772        F777   1.383       .  S
C772        F778   1.384       .  S
C779       C1860   1.404       .  A
C779        C784   1.416       .  A
C779        H786   1.083       .  S
C780       C1859   1.404       .  A
C780        C781   1.414       .  A
C781        C782   1.418       .  A
C781        C788   1.510       .  S
C782        C783   1.418       .  A
C782        H787   1.082       .  S
C783       C1864   1.424       .  A
C784       C1863   1.424       .  A
C784        C785   1.497       .  S
C785        F789   1.381       .  S
C785        F790   1.382   1_655  S
C785        F791   1.381       .  S
C788        F792   1.383       .  S
C788        F793   1.382       .  S
C788        F794   1.384       .  S
C795        C796   1.408       .  A
C795        C800   1.414       .  A
C795       H1072   1.082       .  S
C796        C797   1.415       .  A
C797        C798   1.402       .  A
C797        C804   1.512       .  S
C798        C799   1.400       .  A
C798        H803   1.076       .  S
C799        C800   1.418       .  A
C800       C1071   1.515       .  S
C801       C1070   1.515       .  S
C801        F805   1.382       .  S
C801        F806   1.382       .  S
C801        F807   1.379       .  S
H802       C1065   1.083       .  S
C804        F808   1.378       .  S
C804        F809   1.379       .  S
C804        F810   1.380       .  S
C811       O1906   1.264       .  A
C811        O813   1.259       .  A
C811       C1018   1.495       .  S
Tb812       O834   2.403       .  S
Tb812       O835   2.437       .  S
Tb812      O1898   2.356       .  S
Tb812       O828   2.339       .  S
Tb812      O1903   2.409       .  S
Tb812      O1913   2.325       .  S
O813       Tb817   2.348       .  S
O814       Tb817   2.302       .  S
C815        O820   1.258       .  A
C815        O836   1.265       .  A
C815       C1021   1.496       .  S
Tb817      O1901   2.391       .  S
Tb817      O1906   2.344       .  S
Tb817      O1900   2.318       .  S
Tb817       O829   2.348       .  S
O818        C824   1.269       .  A
O818      Tb1892   2.355       .  S
O819        C822   1.271       .  A
O820      Tb1897   2.328       .  S
O821      Tb1897   2.382       .  S
C822       O1915   1.296       .  A
C822       C1034   1.505       .  S
O823      Tb1892   2.411       .  S
C824        O833   1.271       .  A
C824       C1002   1.490       .  S
C825        O827   1.261       .  A
C825        C957   1.450       .  S
O826       C1891   1.263       .  A
O826      Tb1897   2.343       .  S
O828        C831   1.273       .  A
O829        C830   1.266       .  A
C830       C1005   1.496       .  S
C832        O834   1.272       .  A
C832        C989   1.497       .  S
O833      Tb1892   2.332       .  S
O835       C1902   1.296       .  A
C837        O852   1.265       .  A
C837       O1919   1.270       .  A
C837       C1050   1.493       .  S
Tb838      O1654   2.379       .  S
Tb838       O854   2.377       .  S
Tb838      O1929   2.249       .  S
Tb838       O842   2.343       .  S
Tb838       O862   2.409       .  S
Tb838      O1939   2.367       .  S
O839       C1917   1.270       .  A
O839      Tb1923   2.337       .  S
O840        C851   1.249       .  A
O840      Tb1923   2.322       .  S
C841        O846   1.267       .  A
C841        O862   1.276       .  A
C841       C1053   1.498       .  S
Tb843      O1919   2.336       .  S
Tb843      O1920   2.324       .  S
Tb843       O847   2.380       .  S
Tb843       O852   2.340       .  S
Tb843       O846   2.368       .  S
Tb843       O853   2.354       .  S
Tb843      O1935   2.383       .  S
O844        C850   1.256       .  A
O844      Tb1648   2.377   1_455  S
O845        C848   1.288       .  A
O847        C857   1.286       .  A
C848        O861   1.292       .  A
C848       C1037   1.528       .  S
O849        C856   1.255   1_655  A
O849      Tb1918   2.251       .  S
C850        C941   1.486       .  S
C851       O1933   1.257       .  A
C851        C925   1.449   1_655  S
O853       C1931   1.257       .  A
O854        C857   1.283       .  A
O855        C856   1.248       .  A
O855      Tb1923   2.377   1_455  S
C856       C1069   1.485       .  S
C857        C890   1.480       .  S
C858        O860   1.267       .  A
O859      Tb1918   2.365   1_455  S
C863        O878   1.255       .  A
C863        O865   1.257       .  A
C863       C1066   1.488       .  S
Tb864       O875   2.471       .  S
Tb864       O885   2.336       .  S
O865       Tb869   2.377       .  S
C867        O872   1.246       .  A
C867        O888   1.243       .  A
C867        C938   1.495       .  S
O868        C884   1.259       .  A
Tb869       O873   2.280       .  S
Tb869       O878   2.392       .  S
Tb869       O872   2.216       .  S
O871        C874   1.286       .  A
O873        C883   1.256       .  A
C874        O887   1.269       .  A
C874        C893   1.479   1_554  S
O875        C882   1.296       .  A
C876        O885   1.259       .  A
C876        C954   1.468       .  S
C877        O879   1.263       .  A
C877        C922   1.453       .  S
O880        C883   1.302       .  A
O881        C882   1.271       .  A
C882        C970   1.493       .  S
C883        C986   1.493       .  S
C884        O886   1.260       .  A
C884        C909   1.493       .  S
C889        C890   1.409       .  A
C889        C894   1.414       .  A
C889        H896   1.082       .  S
C891        C892   1.404       .  A
C891        C898   1.505       .  S
C892        C893   1.404       .  A
C892        H897   1.084       .  S
C894        C895   1.514       .  S
C895        F899   1.384       .  S
C895        F900   1.383       .  S
C895        F901   1.382       .  S
C898        F902   1.383       .  S
C898        F903   1.382       .  S
C898        F904   1.382       .  S
C905        C910   1.411       .  A
C905        H912   1.082       .  S
C906        C907   1.425       .  A
C907        C908   1.411       .  A
C907        C914   1.522       .  S
C908        C909   1.404       .  A
C908        H913   1.083       .  S
C910        C911   1.520       .  S
C911        F915   1.384       .  S
C911        F916   1.383       .  S
C911        F917   1.384       .  S
C914        F918   1.384       .  S
C914        F919   1.383       .  S
C914        F920   1.385       .  S
C921        C922   1.399       .  A
C921        C926   1.401       .  A
C921        H928   1.085       .  S
C923        C930   1.515       .  S
C924        C925   1.396       .  A
C925        C926   1.417       .  A
C926       C2007   1.516   1_455  S
C927       C2006   1.516       .  S
C927       F1471   1.383       .  S
C927        F932   1.382       .  S
C930        F935   1.381       .  S
C930        F936   1.378       .  S
F931       C1467   1.383       .  S
C937        C938   1.406       .  A
C937        C942   1.407       .  A
C937        H944   1.077       .  S
C939        C940   1.413       .  A
C939        C946   1.517       .  S
C940        C941   1.406       .  A
C940        H945   1.083       .  S
C942        C943   1.518       .  S
C943        F947   1.384       .  S
C943        F949   1.380       .  S
C946        F950   1.383       .  S
C946        F952   1.385       .  S
C953        C958   1.396       .  A
C953        H960   1.084       .  S
C954        C955   1.421       .  A
C955        C956   1.400       .  A
C955        C962   1.518       .  S
C956        H961   1.084       .  S
C957        C958   1.411       .  A
C958        C959   1.521       .  S
C959        F963   1.381       .  S
C959        F964   1.384       .  S
C959        F965   1.383   1_565  S
C962        F967   1.381       .  S
C962        F968   1.383       .  S
C969        C970   1.404       .  A
C969        C974   1.414       .  A
C969        H976   1.084       .  S
C971        C972   1.403       .  A
C971        C978   1.513       .  S
C972        H977   1.074       .  S
C973        C974   1.419       .  A
C974        C975   1.511       .  S
C975        F979   1.383       .  S
C975        F980   1.378       .  S
C975        F981   1.381       .  S
C978        F982   1.385       .  S
C978        F983   1.372       .  S
C978        F984   1.377       .  S
C985        C986   1.399       .  A
C985        C990   1.391       .  A
C985        H992   1.073       .  S
C987        C988   1.432       .  A
C987        C994   1.512       .  S
C988        C989   1.414       .  A
C988        H993   1.083       .  S
C990        C991   1.511       .  S
C991        F995   1.380       .  S
C991        F996   1.376       .  S
C994        F999   1.382       .  S
C994       F1000   1.385       .  S
C1001      C1002   1.405       .  A
C1001      C1006   1.414       .  A
C1001      H1008   1.083       .  S
C1002      C1003   1.413   1_565  A
C1003      C1550   1.504       .  S
C1004      C1005   1.417       .  A
C1004      H1009   1.083       .  S
C1006      C1007   1.501       .  S
C1007      F1011   1.383       .  S
C1007      F1012   1.383       .  S
C1007      F1013   1.382       .  S
C1010      C1543   1.504       .  S
C1010      F1014   1.382       .  S
C1010      F1016   1.378       .  S
C1017      C1018   1.406       .  A
C1017      C1022   1.416       .  A
C1017      H1024   1.084       .  S
C1018      C2099   1.408       .  A
C1019      C2098   1.410       .  A
C1019      C1020   1.422       .  A
C1019      C1026   1.505       .  S
C1020      C1021   1.418       .  A
C1020      H1025   1.078       .  S
C1021      C2102   1.428   1_455  A
C1022      C2101   1.429       .  A
C1022      C1023   1.508       .  S
C1023      F1027   1.383       .  S
C1023      F1028   1.383       .  S
C1023      F1029   1.381       .  S
C1026      F1031   1.384       .  S
C1026      F1032   1.382       .  S
C1033      C1034   1.409       .  A
C1033      C1038   1.424       .  A
C1033      H1040   1.081       .  S
C1034      C2115   1.408       .  A
C1035      C2114   1.408       .  A
C1035      C1036   1.418       .  A
C1035      C1042   1.505       .  S
C1036      C2117   1.415       .  A
C1036      H1041   1.080       .  S
C1037      C2116   1.415       .  A
C1037      C1038   1.428       .  A
C1038      C1039   1.515       .  S
C1039      F1043   1.378       .  S
C1039      F1044   1.383       .  S
C1039      F1045   1.384       .  S
C1042      F1046   1.377       .  S
C1042      F1047   1.383       .  S
C1042      F1048   1.384       .  S
C1049      C2130   1.404       .  A
C1049      C1054   1.416       .  A
C1049      H1056   1.083       .  S
C1050      C2129   1.404       .  A
C1050      C1051   1.414       .  A
C1051      C1052   1.418       .  A
C1051      C1058   1.510       .  S
C1052      C1053   1.418       .  A
C1052      H1057   1.082       .  S
C1053      C2134   1.424       .  A
C1054      C2133   1.424       .  A
C1054      C1055   1.497       .  S
C1055      F1059   1.380       .  S
C1055      F1060   1.382   1_655  S
C1055      F1061   1.381       .  S
C1058      F1062   1.383       .  S
C1058      F1063   1.382       .  S
C1058      F1064   1.384       .  S
C1065      C1066   1.407       .  A
C1065      C1070   1.413       .  A
C1066      C1067   1.414       .  A
C1067      C1068   1.400       .  A
C1067      C1074   1.512       .  S
C1068      C1069   1.399       .  A
C1068      H1073   1.076       .  S
C1069      C1070   1.417       .  A
C1071      F1075   1.382   1_554  S
C1071      F1076   1.382       .  S
C1071      F1077   1.379   1_554  S
C1074      F1078   1.378       .  S
C1074      F1079   1.379       .  S
C1074      F1080   1.380       .  S
C1081      O1083   1.260   1_455  A
C1081      C1288   1.495       .  S
Tb1082     O1104   2.403       .  S
Tb1082     O1105   2.437       .  S
Tb1082     O1098   2.340       .  S
Tb1082     O1626   2.356       .  S
Tb1082     O1646   2.390       .  S
O1083     Tb1087   2.348   1_655  S
O1084      C1635   1.254   1_545  A
O1084     Tb1087   2.302   1_655  S
C1085      O1090   1.258       .  A
C1085      O1106   1.265       .  A
C1085      C1291   1.496       .  S
O1086      C1642   1.255       .  A
O1086     Tb1622   2.354       .  S
Tb1087     O1637   2.355   1_445  S
Tb1087     O1099   2.349   1_455  S
Tb1087     O1629   2.337   1_545  S
O1088      C1094   1.269       .  A
O1089      C1092   1.272       .  A
O1089     Tb1627   2.345       .  S
O1091      C1641   1.278   1_545  A
C1092      C1304   1.509       .  S
O1093      C1640   1.276   1_455  A
C1094      O1103   1.271       .  A
C1094      C1272   1.491   1_455  S
C1095      O1624   1.256       .  A
C1095      O1097   1.257       .  A
C1095      C1227   1.465       .  S
O1097     Tb1627   2.321   1_655  S
O1098      C1101   1.274       .  A
O1099      C1100   1.266   1_545  A
C1100      O1633   1.276   1_655  A
C1100      C1275   1.496       .  S
C1101      O1631   1.281       .  A
C1101      C1783   1.489       .  S
C1102      O1626   1.255       .  A
C1102      O1104   1.272       .  A
C1102      C1259   1.498       .  S
O1106     Tb1622   2.388   1_545  S
C1107      O1122   1.265       .  A
C1107      C1320   1.492       .  S
Tb1108     O1400   2.375       .  S
Tb1108     O1401   2.413       .  S
Tb1108     O1124   2.376       .  S
Tb1108     O1112   2.344   1_556  S
Tb1108     O1132   2.409   1_556  S
O1110      C1121   1.249       .  A
C1111      O1116   1.267       .  A
C1111      O1132   1.276       .  A
C1111      C1323   1.498       .  S
O1112      C1398   1.257   1_554  A
Tb1113     O1117   2.379       .  S
Tb1113     O1122   2.340       .  S
Tb1113     O1116   2.368       .  S
Tb1113     O1123   2.354   1_554  S
Tb1113     O1385   2.396   1_654  S
O1114      C1120   1.254       .  A
O1115      C1118   1.287   1_455  A
O1115     Tb1383   2.396   1_455  S
O1117      C1127   1.285   1_554  A
C1118      O1131   1.292       .  A
C1118      C1307   1.527   1_655  S
O1119      C1126   1.255       .  A
C1120      O1399   1.258       .  A
C1120      C1211   1.493       .  S
C1121      C1195   1.448       .  S
O1124      C1127   1.283       .  A
O1125      C1126   1.248       .  A
C1126      C1339   1.488       .  S
C1127      C1160   1.479       .  S
C1128      O1382   1.257       .  A
C1128      O1130   1.267       .  A
C1128      C1446   1.492       .  S
O1129      C1390   1.256       .  A
O1130     Tb1378   2.372       .  S
O1131     Tb1378   2.412       .  S
C1133      O1148   1.256       .  A
C1133      O1135   1.257       .  A
C1133      C1336   1.492       .  S
Tb1134     O1426   2.367       .  S
Tb1134     O1697   2.311   1_545  S
Tb1134     O1680   2.346       .  S
Tb1134     O1420   2.505       .  S
Tb1134     O1145   2.471       .  S
Tb1134     O1408   2.352       .  S
Tb1134     O1428   2.408       .  S
Tb1134     O1155   2.327       .  S
O1135     Tb1139   2.382       .  S
O1136      C1417   1.257       .  A
O1136     Tb1949   2.305       .  S
C1137      O1142   1.247       .  A
C1137      O1158   1.243       .  A
C1137      C1208   1.497       .  S
O1138      C1154   1.258       .  A
O1138     Tb1404   2.362       .  S
Tb1139     O1946   2.308   1_544  S
Tb1139     O1143   2.282   1_545  S
Tb1139     O1148   2.396       .  S
Tb1139     O1142   2.217   1_554  S
Tb1139     O1689   2.339   1_545  S
Tb1139     O1421   2.304   1_554  S
Tb1139     O1951   2.404   1_545  S
O1140      C1686   1.256       .  A
O1140     Tb1674   2.337       .  S
O1141      C1144   1.286       .  A
O1141     Tb1949   2.401       .  S
O1143      C1153   1.255   1_565  A
C1144      O1157   1.268       .  A
C1144      C1163   1.479       .  S
O1145      C1152   1.296       .  A
C1146      O1680   1.259       .  A
C1146      O1155   1.258       .  A
C1146      C1224   1.463   1_545  S
C1147      O1406   1.257   1_554  A
C1147      O1149   1.263       .  A
C1147      C1192   1.453       .  S
O1149     Tb1679   2.340       .  S
O1150      C1153   1.301       .  A
O1150     Tb1404   2.497   1_554  S
O1151      C1152   1.270   1_565  A
O1151     Tb1409   2.305   1_565  S
C1152      C1240   1.494   1_545  S
C1153      C1256   1.495       .  S
C1154      O1156   1.261   1_556  A
C1154      C1179   1.495       .  S
O1156     Tb1404   2.370   1_554  S
O1157     Tb1674   2.319       .  S
O1158     Tb1404   2.417       .  S
C1159      C1160   1.410   1_554  A
C1159      C1164   1.414       .  A
C1159      H1166   1.082       .  S
C1160      C1431   1.404       .  A
C1161      C1430   1.404       .  A
C1161      C1162   1.405       .  A
C1161      C1168   1.507       .  S
C1162      C1163   1.406       .  A
C1162      H1167   1.084       .  S
C1163      C1434   1.411       .  A
C1164      C1433   1.411   1_554  A
C1164      C1165   1.513       .  S
C1165      F1169   1.384       .  S
C1165      F1170   1.383       .  S
C1165      F1171   1.382       .  S
C1168      F1172   1.383       .  S
C1168      F1173   1.382       .  S
C1168      F1174   1.382       .  S
C1175      C1446   1.402       .  A
C1175      C1180   1.410       .  A
C1175      H1182   1.082       .  S
C1176      C1398   1.494       .  S
C1176      C1445   1.403       .  A
C1176      C1177   1.425   1_556  A
C1177      C1178   1.411       .  A
C1177      C1184   1.522       .  S
C1178      C1179   1.405   1_554  A
C1178      H1183   1.083       .  S
C1179      C1450   1.424       .  A
C1180      C1449   1.425       .  A
C1180      C1181   1.521       .  S
C1181      F1185   1.384       .  S
C1181      F1186   1.383       .  S
C1181      F1187   1.384       .  S
C1184      F1188   1.384       .  S
C1184      F1189   1.383       .  S
C1184      F1190   1.385       .  S
C1191      C1192   1.399       .  A
C1191      C1196   1.401       .  A
C1191      H1198   1.085       .  S
C1192      C1463   1.408   1_554  A
C1193      C1462   1.408       .  A
C1193      C1464   1.391       .  A
C1193      C1200   1.514       .  S
C1194      C1463   1.393       .  A
C1194      C1195   1.395   1_556  A
C1194      H1469   1.086       .  S
C1195      C1196   1.416       .  A
C1197      F1202   1.382       .  S
C1197      F1473   1.382       .  S
H1199      C1464   1.086       .  S
C1200      F1474   1.383       .  S
C1200      F1205   1.381       .  S
C1200      F1206   1.378       .  S
F1203      C1467   1.382       .  S
F1204      C1470   1.384       .  S
C1207      C1208   1.406       .  A
C1207      C1212   1.408       .  A
C1207      H1214   1.077       .  S
C1208      C1479   1.420       .  A
C1209      C1478   1.419       .  A
C1209      C1210   1.410       .  A
C1209      C1216   1.519       .  S
C1210      C1211   1.407       .  A
C1210      H1215   1.082       .  S
C1211      C1482   1.419       .  A
C1212      C1481   1.413       .  A
C1212      C1213   1.518       .  S
C1213      F1217   1.384       .  S
C1213      F1488   1.383       .  S
C1213      F1219   1.380       .  S
C1216      F1220   1.384       .  S
C1216      F1491   1.382       .  S
C1216      F1222   1.385       .  S
F1218      C1483   1.383       .  S
F1221      C1486   1.381       .  S
C1223      C1764   1.402       .  A
C1223      C1228   1.402       .  A
C1223      H1230   1.082       .  S
C1224      C1763   1.402       .  A
C1224      C1225   1.416       .  A
C1225      C1226   1.400       .  A
C1225      C1232   1.516   1_565  S
C1226      C1767   1.396       .  A
C1226      H1231   1.084       .  S
C1227      C1766   1.399       .  A
C1227      C1228   1.418       .  A
C1228      C1229   1.522       .  S
C1229      F1233   1.384       .  S
C1229      F1234   1.383       .  S
C1229      F1235   1.383       .  S
C1232      F1506   1.381   1_545  S
C1232      F1237   1.381       .  S
C1232      F1238   1.383       .  S
F1236      C1502   1.381   1_564  S
C1239      C1240   1.404   1_545  A
C1239      C1244   1.415       .  A
C1239      H1246   1.084       .  S
C1240      C1781   1.429       .  A
C1241      C1780   1.426       .  A
C1241      C1242   1.404       .  A
C1241      C1248   1.513       .  S
C1242      C1783   1.390       .  A
C1242      H1247   1.076       .  S
C1243      C1641   1.486       .  S
C1243      C1782   1.387       .  A
C1243      C1244   1.419   1_565  A
C1244      C1245   1.511       .  S
C1245      F1249   1.383       .  S
C1245      F1250   1.379       .  S
C1245      F1251   1.381       .  S
C1248      F1252   1.385       .  S
C1248      F1253   1.371       .  S
C1248      F1254   1.378       .  S
C1255      C1256   1.399       .  A
C1255      C1260   1.391   1_545  A
C1255      H1262   1.072       .  S
C1256      C1797   1.421   1_545  A
C1257      C1796   1.422       .  A
C1257      C1258   1.433       .  A
C1257      C1264   1.512       .  S
C1258      C1259   1.414       .  A
C1258      H1263   1.083       .  S
C1259      C1800   1.410       .  A
C1260      C1799   1.410       .  A
C1260      C1261   1.511       .  S
C1261      F1265   1.380   1_565  S
C1261      F1266   1.376   1_565  S
C1261      F1807   1.380       .  S
C1264      F1808   1.383       .  S
C1264      F1269   1.382       .  S
C1264      F1270   1.385       .  S
F1267      C1801   1.380       .  S
F1268      C1804   1.383   1_545  S
C1271      C1272   1.405       .  A
C1271      C1276   1.414       .  A
C1271      H1278   1.083   1_655  S
C1272      C1273   1.412       .  A
C1273      C1814   1.420       .  A
C1274      C1813   1.419       .  A
C1274      C1275   1.417   1_545  A
C1274      H1279   1.083       .  S
C1275      C1816   1.421       .  A
C1276      C1815   1.421       .  A
C1276      C1277   1.500       .  S
C1277      F1281   1.383       .  S
C1277      F1282   1.383       .  S
C1277      F1283   1.383       .  S
C1280      F1284   1.382       .  S
C1280      F1825   1.384       .  S
C1280      F1286   1.378       .  S
F1285      C1820   1.384       .  S
C1287      C1288   1.406   1_655  A
C1287      C1292   1.416       .  A
C1287      H1294   1.084       .  S
C1289      C1290   1.421       .  A
C1289      C1296   1.506       .  S
C1290      C1291   1.417       .  A
C1290      H1295   1.077       .  S
C1292      C1293   1.508       .  S
C1293      F1297   1.383       .  S
C1293      F1298   1.383       .  S
C1293      F1299   1.381       .  S
C1296      F1840   1.382       .  S
C1296      F1301   1.384       .  S
C1296      F1302   1.382       .  S
F1300      C1836   1.382       .  S
C1303      C1304   1.409       .  A
C1303      C1308   1.428       .  A
C1303      H1310   1.082       .  S
C1305      C1306   1.418       .  A
C1305      C1312   1.507       .  S
C1306      H1311   1.081       .  S
C1307      C1308   1.428       .  A
C1308      C1309   1.514   1_455  S
C1309      F1313   1.377       .  S
C1309      F1314   1.383       .  S
C1309      F1315   1.382       .  S
C1312      F1316   1.378       .  S
C1312      F1317   1.383       .  S
C1312      F1318   1.384       .  S
C1319      C1324   1.416       .  A
C1319      H1326   1.083       .  S
C1320      C1321   1.414       .  A
C1321      C1322   1.418       .  A
C1321      C1328   1.511       .  S
C1322      C1323   1.418       .  A
C1322      H1327   1.082       .  S
C1324      C1325   1.497       .  S
C1325      F1329   1.380       .  S
C1325      F1330   1.382       .  S
C1325      F1331   1.381       .  S
C1328      F1332   1.383       .  S
C1328      F1333   1.382       .  S
C1328      F1334   1.384       .  S
C1335      C1336   1.408       .  A
C1335      C1340   1.414       .  A
C1335      H1612   1.082       .  S
C1336      C1337   1.415       .  A
C1337      C1338   1.402       .  A
C1337      C1344   1.512       .  S
C1338      C1339   1.400       .  A
C1338      H1343   1.076       .  S
C1339      C1340   1.418       .  A
C1340      C1611   1.515       .  S
C1341      C1610   1.515       .  S
C1341      F1345   1.383       .  S
C1341      F1346   1.383       .  S
C1341      F1347   1.380       .  S
H1342      C1605   1.083       .  S
C1344      F1348   1.378       .  S
C1344      F1349   1.379       .  S
C1344      F1350   1.380       .  S
C1351      O1353   1.259   1_455  A
C1351      C1558   1.495       .  S
Tb1352     O1374   2.402       .  S
Tb1352     O1375   2.435       .  S
Tb1352     O1368   2.339       .  S
Tb1352     O1896   2.355       .  S
Tb1352     O1916   2.389       .  S
O1353     Tb1357   2.350   1_655  S
O1354      C1905   1.253   1_545  A
O1354     Tb1357   2.301   1_655  S
C1355      O1360   1.256       .  A
C1355      O1376   1.265       .  A
C1355      C1561   1.498       .  S
O1356      C1912   1.255       .  A
O1356     Tb1892   2.367       .  S
Tb1357     O1907   2.353   1_445  S
Tb1357     O1369   2.348   1_455  S
Tb1357     O1899   2.335   1_545  S
O1358      C1364   1.269       .  A
O1359      C1362   1.273       .  A
O1359     Tb1897   2.346       .  S
O1361      C1911   1.281   1_545  A
C1362      C1574   1.509       .  S
O1363      C1910   1.276   1_455  A
C1364      O1373   1.271       .  A
C1364      C1542   1.490   1_455  S
C1365      O1894   1.256       .  A
C1365      O1367   1.257       .  A
C1365      C1497   1.465       .  S
O1367     Tb1897   2.321   1_655  S
O1368      C1371   1.273       .  A
O1369      C1370   1.266   1_545  A
C1370      O1903   1.276   1_655  A
C1370      C1545   1.497       .  S
C1371      O1901   1.282       .  A
C1371      C2053   1.489       .  S
C1372      O1896   1.255       .  A
C1372      O1374   1.272       .  A
C1372      C1529   1.497       .  S
O1376     Tb1892   2.392   1_545  S
C1377      O1392   1.265       .  A
C1377      C1590   1.492       .  S
Tb1378     O1394   2.375       .  S
Tb1378     O1382   2.343       .  S
Tb1378     O1402   2.408       .  S
O1380      C1391   1.251       .  A
C1381      O1386   1.267       .  A
C1381      O1402   1.276       .  A
C1381      C1593   1.498       .  S
Tb1383     O1387   2.379       .  S
Tb1383     O1392   2.340       .  S
Tb1383     O1386   2.369       .  S
Tb1383     O1393   2.353       .  S
O1384      C1390   1.256       .  A
O1385      C1388   1.287   1_455  A
O1387      C1397   1.285       .  A
C1388      O1401   1.293       .  A
C1388      C1577   1.527   1_655  S
O1389      C1396   1.257       .  A
C1390      C1481   1.487       .  S
C1391      C1465   1.442       .  S
O1394      C1397   1.282       .  A
O1395      C1396   1.264       .  A
C1396      C1609   1.490       .  S
C1397      C1430   1.479       .  S
C1398      O1400   1.267       .  A
C1403      O1418   1.252       .  A
C1403      O1405   1.258       .  A
C1403      C1606   1.486       .  S
Tb1404     O1967   2.322   1_546  S
Tb1404     O1950   2.337       .  S
Tb1404     O1415   2.470       .  S
Tb1404     O1425   2.338       .  S
O1405     Tb1409   2.385       .  S
O1406     Tb1679   2.308   1_556  S
C1407      O1412   1.249       .  A
C1407      O1428   1.243       .  A
C1407      C1478   1.497       .  S
O1408      C1424   1.259       .  A
Tb1409     O1676   2.320   1_545  S
Tb1409     O1413   2.292   1_545  S
Tb1409     O1418   2.389       .  S
Tb1409     O1412   2.226       .  S
Tb1409     O1959   2.332   1_545  S
Tb1409     O1681   2.401   1_545  S
O1410      C1956   1.256       .  A
O1410     Tb1944   2.337       .  S
O1411      C1414   1.287       .  A
O1411     Tb1679   2.403       .  S
O1413      C1423   1.252       .  A
C1414      O1427   1.268       .  A
C1414      C1433   1.480   1_554  S
O1415      C1422   1.296       .  A
C1416      O1950   1.256       .  A
C1416      O1425   1.259       .  A
C1416      C1494   1.468   1_545  S
C1417      O1419   1.263       .  A
C1417      C1462   1.451       .  S
O1419     Tb1949   2.340       .  S
O1420      C1423   1.300   1_545  A
O1421      C1422   1.271       .  A
C1422      C1510   1.492   1_545  S
C1423      C1526   1.506       .  S
C1424      O1426   1.264       .  A
C1424      C1449   1.495       .  S
O1427     Tb1944   2.317   1_554  S
C1429      C1430   1.409       .  A
C1429      C1434   1.413       .  A
C1429      H1436   1.082       .  S
C1431      C1432   1.404       .  A
C1431      C1438   1.507       .  S
C1432      C1433   1.406       .  A
C1432      H1437   1.084       .  S
C1434      C1435   1.514       .  S
C1435      F1439   1.384       .  S
C1435      F1440   1.383       .  S
C1435      F1441   1.382       .  S
C1438      F1442   1.383       .  S
C1438      F1443   1.382       .  S
C1438      F1444   1.382       .  S
C1445      C1450   1.411       .  A
C1445      H1452   1.082       .  S
C1446      C1447   1.424       .  A
C1447      C1448   1.411       .  A
C1447      C1454   1.522       .  S
C1448      C1449   1.405       .  A
C1448      H1453   1.083       .  S
C1450      C1451   1.520       .  S
C1451      F1455   1.384       .  S
C1451      F1456   1.383       .  S
C1451      F1457   1.384       .  S
C1454      F1458   1.384       .  S
C1454      F1459   1.383       .  S
C1454      F1460   1.385       .  S
C1461      C1462   1.399       .  A
C1461      C1466   1.401       .  A
C1461      H1468   1.085       .  S
C1463      C1470   1.515       .  S
C1464      C1465   1.394       .  A
C1465      C1466   1.416       .  A
C1467      F1472   1.382       .  S
C1470      F1475   1.381       .  S
C1470      F1476   1.378       .  S
C1477      C1478   1.405       .  A
C1477      C1482   1.409       .  A
C1477      H1484   1.078       .  S
C1479      C1480   1.413       .  A
C1479      C1486   1.517       .  S
C1480      C1481   1.406       .  A
C1480      H1485   1.083       .  S
C1482      C1483   1.519       .  S
C1483      F1487   1.382       .  S
C1483      F1489   1.383       .  S
C1486      F1490   1.383       .  S
C1486      F1492   1.385       .  S
C1493      C2034   1.402       .  A
C1493      C1498   1.401       .  A
C1493      H1500   1.082       .  S
C1494      C2033   1.403       .  A
C1494      C1495   1.421       .  A
C1495      C1496   1.400       .  A
C1495      C1502   1.518   1_565  S
C1496      C2037   1.394       .  A
C1496      H1501   1.084       .  S
C1497      C2036   1.400       .  A
C1497      C1498   1.418       .  A
C1498      C1499   1.522       .  S
C1499      F1503   1.384       .  S
C1499      F1504   1.383       .  S
C1499      F1505   1.383       .  S
C1502      F1507   1.381       .  S
C1502      F1508   1.383       .  S
C1509      C1510   1.404   1_545  A
C1509      C1514   1.414       .  A
C1509      H1516   1.084       .  S
C1510      C2051   1.426       .  A
C1511      C2050   1.426       .  A
C1511      C1512   1.403       .  A
C1511      C1518   1.513       .  S
C1512      C2053   1.389       .  A
C1512      H1517   1.074       .  S
C1513      C1911   1.489       .  S
C1513      C2052   1.389       .  A
C1513      C1514   1.420   1_565  A
C1514      C1515   1.511       .  S
C1515      F1519   1.383       .  S
C1515      F1520   1.379       .  S
C1515      F1521   1.380       .  S
C1518      F1522   1.385       .  S
C1518      F1523   1.372       .  S
C1518      F1524   1.377       .  S
C1525      C1526   1.400       .  A
C1525      C1530   1.392       .  A
C1525      H1532   1.072   1_565  S
C1526      C2067   1.421       .  A
C1527      C2066   1.422       .  A
C1527      C1528   1.432       .  A
C1527      C1534   1.512       .  S
C1528      C1529   1.414       .  A
C1528      H1533   1.083       .  S
C1529      C2070   1.410       .  A
C1530      C2069   1.409       .  A
C1530      C1531   1.511       .  S
C1531      F1535   1.377       .  S
C1531      F1536   1.374   1_565  S
C1531      F2077   1.380       .  S
C1534      F2078   1.383       .  S
C1534      F1539   1.382       .  S
C1534      F1540   1.385       .  S
F1537      C2071   1.380       .  S
F1538      C2074   1.382   1_545  S
C1541      C1542   1.405       .  A
C1541      C1546   1.414       .  A
C1541      H1548   1.083   1_655  S
C1542      C1543   1.412       .  A
C1543      C2084   1.420       .  A
C1544      C2083   1.419       .  A
C1544      C1545   1.417   1_545  A
C1544      H1549   1.083       .  S
C1545      C2086   1.421       .  A
C1546      C2085   1.421       .  A
C1546      C1547   1.500       .  S
C1547      F1551   1.383       .  S
C1547      F1552   1.383       .  S
C1547      F1553   1.383       .  S
C1550      F1554   1.382       .  S
C1550      F2095   1.384       .  S
C1550      F1556   1.380       .  S
F1555      C2090   1.384       .  S
C1557      C1558   1.405   1_655  A
C1557      C1562   1.416       .  A
C1557      H1564   1.084       .  S
C1559      C1560   1.422       .  A
C1559      C1566   1.505       .  S
C1560      C1561   1.418       .  A
C1560      H1565   1.077       .  S
C1562      C1563   1.508       .  S
C1563      F1567   1.383       .  S
C1563      F1568   1.383       .  S
C1563      F1569   1.381       .  S
C1566      F2110   1.382       .  S
C1566      F1571   1.384       .  S
C1566      F1572   1.382       .  S
F1570      C2106   1.382       .  S
C1573      C1574   1.409       .  A
C1573      C1578   1.427       .  A
C1573      H1580   1.082       .  S
C1575      C1576   1.418       .  A
C1575      C1582   1.505       .  S
C1576      H1581   1.080       .  S
C1577      C1578   1.428       .  A
C1578      C1579   1.514   1_455  S
C1579      F1583   1.377       .  S
C1579      F1584   1.383       .  S
C1579      F1585   1.382       .  S
C1582      F1586   1.377       .  S
C1582      F1587   1.383       .  S
C1582      F1588   1.384       .  S
C1589      C1594   1.417       .  A
C1589      H1596   1.084       .  S
C1590      C1591   1.414       .  A
C1591      C1592   1.418       .  A
C1591      C1598   1.511       .  S
C1592      C1593   1.418       .  A
C1592      H1597   1.082       .  S
C1594      C1595   1.499       .  S
C1595      F1599   1.378       .  S
C1595      F1600   1.381       .  S
C1595      F1601   1.383       .  S
C1598      F1602   1.383       .  S
C1598      F1603   1.382       .  S
C1598      F1604   1.384       .  S
C1605      C1606   1.410       .  A
C1605      C1610   1.417       .  A
C1606      C1607   1.407       .  A
C1607      C1608   1.391       .  A
C1607      C1614   1.507       .  S
C1608      C1609   1.404       .  A
C1608      H1613   1.079       .  S
C1609      C1610   1.420       .  A
C1611      F1615   1.382   1_554  S
C1611      F1616   1.382       .  S
C1611      F1617   1.380   1_554  S
C1614      F1618   1.379       .  S
C1614      F1619   1.380       .  S
C1614      F1620   1.385       .  S
C1621      O1623   1.262   1_455  A
C1621      C1828   1.495       .  S
Tb1622     O1644   2.399       .  S
Tb1622     O1645   2.430       .  S
Tb1622     O1638   2.343       .  S
O1623     Tb1627   2.351   1_655  S
O1624     Tb1627   2.349   1_655  S
C1625      O1630   1.256       .  A
C1625      O1646   1.264       .  A
C1625      C1831   1.498       .  S
Tb1627     O1639   2.354   1_455  S
O1628      C1634   1.270       .  A
O1629      C1632   1.272       .  A
C1632      C1844   1.503       .  S
C1634      O1643   1.270       .  A
C1634      C1812   1.490       .  S
C1635      O1637   1.261       .  A
C1635      C1767   1.448       .  S
O1638      C1641   1.274       .  A
O1639      C1640   1.267       .  A
C1640      C1815   1.497       .  S
C1642      O1644   1.271       .  A
C1642      C1799   1.495       .  S
C1647      O1662   1.265       .  A
C1647      C1860   1.492       .  S
Tb1648     O1940   2.372       .  S
Tb1648     O1941   2.408       .  S
Tb1648     O1664   2.381       .  S
Tb1648     O1652   2.344   1_556  S
Tb1648     O1672   2.406   1_556  S
O1650      C1661   1.249       .  A
C1651      O1656   1.268       .  A
C1651      O1672   1.275       .  A
C1651      C1863   1.498       .  S
O1652      C1938   1.258   1_554  A
Tb1653     O1657   2.377       .  S
Tb1653     O1662   2.340       .  S
Tb1653     O1656   2.371       .  S
Tb1653     O1663   2.356   1_554  S
Tb1653     O1925   2.403   1_654  S
O1654      C1660   1.256       .  A
O1655      C1658   1.288   1_455  A
O1655     Tb1923   2.402   1_455  S
O1657      C1667   1.284   1_554  A
C1658      O1671   1.292       .  A
C1658      C1847   1.527   1_655  S
O1659      C1666   1.255       .  A
C1660      O1939   1.256       .  A
C1660      C1751   1.487       .  S
C1661      C1735   1.448       .  S
O1664      C1667   1.283       .  A
O1665      C1666   1.248       .  A
C1666      C1879   1.489       .  S
C1667      C1700   1.481       .  S
C1668      O1922   1.258       .  A
C1668      O1670   1.266       .  A
C1668      C1986   1.492       .  S
O1669      C1930   1.256       .  A
O1670     Tb1918   2.371       .  S
O1671     Tb1918   2.408       .  S
C1673      O1688   1.256       .  A
C1673      O1675   1.257       .  A
C1673      C1876   1.492       .  S
Tb1674     O1966   2.370       .  S
Tb1674     O1960   2.497       .  S
Tb1674     O1685   2.470       .  S
Tb1674     O1948   2.359       .  S
Tb1674     O1968   2.414       .  S
Tb1674     O1695   2.342       .  S
O1675     Tb1679   2.380       .  S
O1676      C1957   1.258       .  A
C1677      O1682   1.247       .  A
C1677      O1698   1.243       .  A
C1677      C1748   1.497       .  S
O1678      C1694   1.258       .  A
O1678     Tb1944   2.358       .  S
Tb1679     O1683   2.285       .  S
Tb1679     O1688   2.396       .  S
Tb1679     O1682   2.218   1_554  S
Tb1679     O1961   2.306   1_554  S
O1681      C1684   1.287       .  A
O1683      C1693   1.255       .  A
C1684      O1697   1.265       .  A
C1684      C1703   1.482       .  S
O1685      C1692   1.296       .  A
C1686      O1695   1.259       .  A
C1686      C1764   1.470       .  S
C1687      O1946   1.257   1_554  A
C1687      O1689   1.263       .  A
C1687      C1732   1.452       .  S
O1690      C1693   1.301       .  A
O1690     Tb1944   2.496   1_554  S
O1691      C1692   1.272       .  A
O1691     Tb1949   2.308       .  S
C1692      C1780   1.494       .  S
C1693      C1796   1.496       .  S
C1694      O1696   1.262   1_556  A
C1694      C1719   1.495       .  S
O1696     Tb1944   2.369   1_554  S
O1698     Tb1944   2.415       .  S
C1699      C1700   1.410   1_554  A
C1699      C1704   1.415       .  A
C1699      H1706   1.082       .  S
C1700      C1971   1.404       .  A
C1701      C1970   1.401       .  A
C1701      C1702   1.399       .  A
C1701      C1708   1.508       .  S
C1702      C1703   1.408       .  A
C1702      H1707   1.084       .  S
C1703      C1974   1.413       .  A
C1704      C1973   1.411   1_554  A
C1704      C1705   1.513       .  S
C1705      F1709   1.384       .  S
C1705      F1710   1.383       .  S
C1705      F1711   1.382       .  S
C1708      F1712   1.383       .  S
C1708      F1713   1.383       .  S
C1708      F1714   1.381       .  S
C1715      C1986   1.403       .  A
C1715      C1720   1.411       .  A
C1715      H1722   1.082       .  S
C1716      C1938   1.492       .  S
C1716      C1985   1.402       .  A
C1716      C1717   1.424   1_556  A
C1717      C1718   1.411       .  A
C1717      C1724   1.522       .  S
C1718      C1719   1.405   1_554  A
C1718      H1723   1.083       .  S
C1719      C1990   1.425       .  A
C1720      C1989   1.425       .  A
C1720      C1721   1.520       .  S
C1721      F1725   1.384       .  S
C1721      F1726   1.383       .  S
C1721      F1727   1.384       .  S
C1724      F1728   1.384       .  S
C1724      F1729   1.383       .  S
C1724      F1730   1.385       .  S
C1731      C1732   1.399       .  A
C1731      C1736   1.400       .  A
C1731      H1738   1.085       .  S
C1732      C2003   1.408   1_554  A
C1733      C2002   1.406       .  A
C1733      C2004   1.394       .  A
C1733      C1740   1.514       .  S
C1734      C2003   1.393       .  A
C1734      C1735   1.395   1_556  A
C1734      H2009   1.085       .  S
C1735      C1736   1.416       .  A
C1737      F1742   1.382       .  S
C1737      F2013   1.382       .  S
H1739      C2004   1.085       .  S
C1740      F2014   1.384       .  S
C1740      F1745   1.381       .  S
C1740      F1746   1.379       .  S
F1743      C2007   1.382       .  S
F1744      C2010   1.383       .  S
C1747      C1748   1.406       .  A
C1747      C1752   1.408       .  A
C1747      H1754   1.077       .  S
C1748      C2019   1.420       .  A
C1749      C2018   1.420       .  A
C1749      C1750   1.413       .  A
C1749      C1756   1.517       .  S
C1750      C1751   1.406       .  A
C1750      H1755   1.083       .  S
C1751      C2022   1.414       .  A
C1752      C2021   1.414       .  A
C1752      C1753   1.518       .  S
C1753      F1757   1.384       .  S
C1753      F2028   1.383       .  S
C1753      F1759   1.380       .  S
C1756      F1760   1.383       .  S
C1756      F2031   1.381       .  S
C1756      F1762   1.385       .  S
F1758      C2023   1.383       .  S
F1761      C2026   1.381       .  S
C1763      C1768   1.397       .  A
C1763      H1770   1.083       .  S
C1764      C1765   1.417       .  A
C1765      C1766   1.398       .  A
C1765      C1772   1.519       .  S
C1766      H1771   1.083       .  S
C1767      C1768   1.412       .  A
C1768      C1769   1.524       .  S
C1769      F1773   1.383       .  S
C1769      F1774   1.383       .  S
C1769      F1775   1.381       .  S
C1772      F2046   1.381       .  S
C1772      F1777   1.381       .  S
C1772      F1778   1.383       .  S
F1776      C2042   1.382   1_554  S
C1779      C1780   1.403       .  A
C1779      C1784   1.414       .  A
C1779      H1786   1.084       .  S
C1781      C1782   1.402       .  A
C1781      C1788   1.515       .  S
C1782      H1787   1.075       .  S
C1783      C1784   1.421       .  A
C1784      C1785   1.511       .  S
C1785      F1789   1.383       .  S
C1785      F1790   1.378       .  S
C1785      F1791   1.379       .  S
C1788      F1792   1.385       .  S
C1788      F1793   1.373       .  S
C1788      F1794   1.376       .  S
C1795      C1796   1.399       .  A
C1795      C1800   1.391       .  A
C1795      H1802   1.072       .  S
C1797      C1798   1.432       .  A
C1797      C1804   1.512       .  S
C1798      C1799   1.414       .  A
C1798      H1803   1.083       .  S
C1800      C1801   1.510       .  S
C1801      F1805   1.380       .  S
C1801      F1806   1.376       .  S
C1804      F1809   1.383       .  S
C1804      F1810   1.385       .  S
C1811      C1812   1.405   1_655  A
C1811      C1816   1.414       .  A
C1811      H1818   1.083   1_655  S
C1812      C1813   1.413   1_465  A
C1814      C1815   1.418       .  A
C1814      H1819   1.083       .  S
C1816      C1817   1.501       .  S
C1817      F1821   1.383       .  S
C1817      F1822   1.384       .  S
C1817      F1823   1.382       .  S
C1820      F1824   1.382       .  S
C1820      F1826   1.380       .  S
C1827      C1828   1.405   1_655  A
C1827      C1832   1.415       .  A
C1827      H1834   1.083       .  S
C1829      C1830   1.423       .  A
C1829      C1836   1.506       .  S
C1830      C1831   1.419       .  A
C1830      H1835   1.077       .  S
C1832      C1833   1.505       .  S
C1833      F1837   1.383       .  S
C1833      F1838   1.383       .  S
C1833      F1839   1.379       .  S
C1836      F1841   1.384       .  S
C1836      F1842   1.382       .  S
C1843      C1844   1.407       .  A
C1843      C1848   1.424       .  A
C1843      H1850   1.081       .  S
C1845      C1846   1.415       .  A
C1845      C1852   1.509       .  S
C1846      H1851   1.079       .  S
C1847      C1848   1.429       .  A
C1848      C1849   1.515   1_455  S
C1849      F1853   1.376       .  S
C1849      F1854   1.383       .  S
C1849      F1855   1.384       .  S
C1852      F1856   1.374       .  S
C1852      F1857   1.383       .  S
C1852      F1858   1.384       .  S
C1859      C1864   1.416       .  A
C1859      H1866   1.083       .  S
C1860      C1861   1.414       .  A
C1861      C1862   1.418       .  A
C1861      C1868   1.510       .  S
C1862      C1863   1.418       .  A
C1862      H1867   1.082       .  S
C1864      C1865   1.496       .  S
C1865      F1869   1.380       .  S
C1865      F1870   1.381       .  S
C1865      F1871   1.381       .  S
C1868      F1872   1.383       .  S
C1868      F1873   1.382       .  S
C1868      F1874   1.384       .  S
C1875      C1876   1.408       .  A
C1875      C1880   1.414       .  A
C1875      H2152   1.082       .  S
C1876      C1877   1.415       .  A
C1877      C1878   1.402       .  A
C1877      C1884   1.512       .  S
C1878      C1879   1.400       .  A
C1878      H1883   1.077       .  S
C1879      C1880   1.418       .  A
C1880      C2151   1.515       .  S
C1881      C2150   1.515       .  S
C1881      F1885   1.382       .  S
C1881      F1886   1.382       .  S
C1881      F1887   1.379       .  S
H1882      C2145   1.082       .  S
C1884      F1888   1.378       .  S
C1884      F1889   1.379       .  S
C1884      F1890   1.380       .  S
C1891      O1893   1.262   1_455  A
C1891      C2098   1.495       .  S
Tb1892     O1914   2.403       .  S
Tb1892     O1915   2.438       .  S
Tb1892     O1908   2.339       .  S
O1893     Tb1897   2.351   1_655  S
O1894     Tb1897   2.349   1_655  S
C1895      O1900   1.256       .  A
C1895      O1916   1.264       .  A
C1895      C2101   1.498       .  S
Tb1897     O1909   2.355   1_455  S
O1898      C1904   1.270       .  A
O1899      C1902   1.272       .  A
C1902      C2114   1.505       .  S
C1904      O1913   1.271       .  A
C1904      C2082   1.490       .  S
C1905      O1907   1.261       .  A
C1905      C2037   1.449       .  S
O1908      C1911   1.273       .  A
O1909      C1910   1.267       .  A
C1910      C2085   1.497       .  S
C1912      O1914   1.271       .  A
C1912      C2069   1.502       .  S
C1917      O1932   1.265       .  A
C1917      C2130   1.492       .  S
Tb1918     O1934   2.367       .  S
Tb1918     O1922   2.346       .  S
Tb1918     O1942   2.407       .  S
O1920      C1931   1.249       .  A
C1921      O1926   1.268       .  A
C1921      O1942   1.276       .  A
C1921      C2133   1.498       .  S
Tb1923     O1927   2.375       .  S
Tb1923     O1932   2.340       .  S
Tb1923     O1926   2.372       .  S
Tb1923     O1933   2.358       .  S
O1924      C1930   1.256       .  A
O1925      C1928   1.288   1_455  A
O1927      C1937   1.284       .  A
C1928      O1941   1.292       .  A
C1928      C2117   1.528   1_655  S
O1929      C1936   1.255       .  A
C1930      C2021   1.487       .  S
C1931      C2005   1.449       .  S
O1934      C1937   1.281       .  A
O1935      C1936   1.248       .  A
C1936      C2149   1.489       .  S
C1937      C1970   1.474       .  S
C1938      O1940   1.266       .  A
C1943      O1958   1.256       .  A
C1943      O1945   1.257       .  A
C1943      C2146   1.492       .  S
Tb1944     O1955   2.469       .  S
Tb1944     O1965   2.342       .  S
O1945     Tb1949   2.380       .  S
C1947      O1952   1.247       .  A
C1947      O1968   1.243       .  A
C1947      C2018   1.497       .  S
O1948      C1964   1.258       .  A
Tb1949     O1953   2.284       .  S
Tb1949     O1958   2.395       .  S
Tb1949     O1952   2.218       .  S
O1951      C1954   1.287       .  A
O1953      C1963   1.254       .  A
C1954      O1967   1.268       .  A
C1954      C1973   1.480   1_554  S
O1955      C1962   1.296       .  A
C1956      O1965   1.259       .  A
C1956      C2034   1.469       .  S
C1957      O1959   1.260       .  A
C1957      C2002   1.452       .  S
O1960      C1963   1.301       .  A
O1961      C1962   1.271       .  A
C1962      C2050   1.492       .  S
C1963      C2066   1.496       .  S
C1964      O1966   1.262       .  A
C1964      C1989   1.495       .  S
C1969      C1970   1.409       .  A
C1969      C1974   1.414       .  A
C1969      H1976   1.083       .  S
C1971      C1972   1.405       .  A
C1971      C1978   1.506       .  S
C1972      C1973   1.405       .  A
C1972      H1977   1.084       .  S
C1974      C1975   1.515       .  S
C1975      F1979   1.384       .  S
C1975      F1980   1.383       .  S
C1975      F1981   1.383       .  S
C1978      F1982   1.383       .  S
C1978      F1983   1.382       .  S
C1978      F1984   1.381       .  S
C1985      C1990   1.411       .  A
C1985      H1992   1.082       .  S
C1986      C1987   1.423       .  A
C1987      C1988   1.411       .  A
C1987      C1994   1.522       .  S
C1988      C1989   1.405       .  A
C1988      H1993   1.083       .  S
C1990      C1991   1.520       .  S
C1991      F1995   1.384       .  S
C1991      F1996   1.383       .  S
C1991      F1997   1.384       .  S
C1994      F1998   1.384       .  S
C1994      F1999   1.383       .  S
C1994      F2000   1.385       .  S
C2001      C2002   1.399       .  A
C2001      C2006   1.400       .  A
C2001      H2008   1.085       .  S
C2003      C2010   1.515       .  S
C2004      C2005   1.397       .  A
C2005      C2006   1.416       .  A
C2007      F2012   1.382       .  S
C2010      F2015   1.381       .  S
C2010      F2016   1.378       .  S
C2017      C2018   1.406       .  A
C2017      C2022   1.408       .  A
C2017      H2024   1.078       .  S
C2019      C2020   1.413       .  A
C2019      C2026   1.517       .  S
C2020      C2021   1.406       .  A
C2020      H2025   1.083       .  S
C2022      C2023   1.518       .  S
C2023      F2027   1.384       .  S
C2023      F2029   1.380       .  S
C2026      F2030   1.383       .  S
C2026      F2032   1.385       .  S
C2033      C2038   1.396       .  A
C2033      H2040   1.083       .  S
C2034      C2035   1.417       .  A
C2035      C2036   1.398       .  A
C2035      C2042   1.519       .  S
C2036      H2041   1.083       .  S
C2037      C2038   1.411       .  A
C2038      C2039   1.521       .  S
C2039      F2043   1.382       .  S
C2039      F2044   1.384       .  S
C2039      F2045   1.382   1_565  S
C2042      F2047   1.381       .  S
C2042      F2048   1.383       .  S
C2049      C2050   1.403       .  A
C2049      C2054   1.414       .  A
C2049      H2056   1.084       .  S
C2051      C2052   1.403       .  A
C2051      C2058   1.514       .  S
C2052      H2057   1.074       .  S
C2053      C2054   1.420       .  A
C2054      C2055   1.511       .  S
C2055      F2059   1.383       .  S
C2055      F2060   1.378       .  S
C2055      F2061   1.380       .  S
C2058      F2062   1.385       .  S
C2058      F2063   1.372       .  S
C2058      F2064   1.377       .  S
C2065      C2066   1.399       .  A
C2065      C2070   1.391       .  A
C2065      H2072   1.072       .  S
C2067      C2068   1.436       .  A
C2067      C2074   1.511       .  S
C2068      C2069   1.417       .  A
C2068      H2073   1.083       .  S
C2070      C2071   1.511       .  S
C2071      F2075   1.380       .  S
C2071      F2076   1.376       .  S
C2074      F2079   1.383       .  S
C2074      F2080   1.385       .  S
C2081      C2082   1.405   1_655  A
C2081      C2086   1.414       .  A
C2081      H2088   1.083   1_655  S
C2082      C2083   1.413   1_465  A
C2084      C2085   1.418       .  A
C2084      H2089   1.083       .  S
C2086      C2087   1.501       .  S
C2087      F2091   1.383       .  S
C2087      F2092   1.383       .  S
C2087      F2093   1.382       .  S
C2090      F2094   1.382       .  S
C2090      F2096   1.380       .  S
C2097      C2098   1.405   1_655  A
C2097      C2102   1.415       .  A
C2097      H2104   1.083       .  S
C2099      C2100   1.423       .  A
C2099      C2106   1.506       .  S
C2100      C2101   1.419       .  A
C2100      H2105   1.077       .  S
C2102      C2103   1.505       .  S
C2103      F2107   1.383       .  S
C2103      F2108   1.383       .  S
C2103      F2109   1.379       .  S
C2106      F2111   1.384       .  S
C2106      F2112   1.382       .  S
C2113      C2114   1.408       .  A
C2113      C2118   1.424   1_455  A
C2113      H2120   1.081   1_455  S
C2115      C2116   1.418       .  A
C2115      C2122   1.505       .  S
C2116      H2121   1.079       .  S
C2117      C2118   1.428   1_455  A
C2118      C2119   1.515       .  S
C2119      F2123   1.378       .  S
C2119      F2124   1.383       .  S
C2119      F2125   1.384       .  S
C2122      F2126   1.376       .  S
C2122      F2127   1.383       .  S
C2122      F2128   1.384       .  S
C2129      C2134   1.416       .  A
C2129      H2136   1.083       .  S
C2130      C2131   1.414       .  A
C2131      C2132   1.418       .  A
C2131      C2138   1.510       .  S
C2132      C2133   1.418       .  A
C2132      H2137   1.082       .  S
C2134      C2135   1.496       .  S
C2135      F2139   1.380       .  S
C2135      F2140   1.381       .  S
C2135      F2141   1.381       .  S
C2138      F2142   1.383       .  S
C2138      F2143   1.382       .  S
C2138      F2144   1.384       .  S
C2145      C2146   1.408       .  A
C2145      C2150   1.414       .  A
C2146      C2147   1.415       .  A
C2147      C2148   1.402       .  A
C2147      C2154   1.512       .  S
C2148      C2149   1.400       .  A
C2148      H2153   1.077       .  S
C2149      C2150   1.418       .  A
C2151      F2155   1.382   1_554  S
C2151      F2156   1.382       .  S
C2151      F2157   1.379   1_554  S
C2154      F2158   1.378       .  S
C2154      F2159   1.379       .  S
C2154      F2160   1.380       .  S
