geometry optimzed in LAMMPS
_audit_creation_date              2020-11-30 
_audit_creation_method            'lammps2cif' 
_symmetry_space_group_name_H-M    'P1' 
_symmetry_Int_Tables_number       1 
_symmetry_cell_setting            triclinic 
loop_ 
_symmetry_equiv_pos_as_xyz 
  x,y,z 
_cell_length_a                    51.20069624 
_cell_length_b                    43.228667117100045 
_cell_length_c                    47.00443296155535 
_cell_angle_alpha                 86.6908119932706 
_cell_angle_beta                  91.18721574130319 
_cell_angle_gamma                 88.64371909927577 
loop_ 
_atom_site_label 
_atom_site_type_symbol 
_atom_site_fract_x 
_atom_site_fract_y 
_atom_site_fract_z 
_atom_site_charge 
N1          N  0.30378179  0.72082276  0.72617538    -0.02600
C2          C  0.32361617  0.74105717  0.72893428     0.00000
C3          C  0.32057850  0.75706337  0.75332939    -0.22900
C4          C  0.29828306  0.74707327  0.76577826    -0.23100
C5          C  0.28814178  0.72478624  0.74900374    -0.00100
H6          H  0.33316151  0.77464315  0.76112023     0.13600
H7          H  0.28966827  0.75660013  0.78429178     0.13700
N8          N  0.16418520  0.71900141  0.78991897    -0.02600
C9          C  0.14274180  0.73798834  0.78529320     0.00000
C10         C  0.14364426  0.75298277  0.75855848    -0.22900
C11         C  0.16648129  0.74387451  0.74670110    -0.23100
C12         C  0.17894497  0.72288666  0.76612587    -0.00100
H13         H  0.12922775  0.76902618  0.74857543     0.13600
H14         H  0.17369824  0.75309965  0.72656318     0.13700
N15         N  0.02586596  0.77991789  0.81879392    -0.02600
C16         C  0.03917382  0.75241994  0.82382183     0.00000
C17         C  0.02319894  0.72865770  0.81613618    -0.22900
C18         C  0.00043092  0.74220909  0.80496187    -0.23100
C19         C  0.00300527  0.77391725  0.80548579    -0.00100
H20         H  0.02857926  0.70458351  0.81418867     0.13600
H21         H  0.98586756  0.73041277  0.79287589     0.13700
N22         N  0.43958112  0.79289597  0.71254147    -0.02600
C23         C  0.42817872  0.76563250  0.70673977     0.00000
C24         C  0.44407377  0.74120630  0.71805727    -0.22900
C25         C  0.46463178  0.75374764  0.73201497    -0.23100
C26         C  0.46114999  0.78544452  0.72894588    -0.00100
H27         H  0.43982868  0.71681453  0.71963756     0.13600
H28         H  0.47862986  0.74108218  0.74611145     0.13700
N29         N  0.33664265  0.63955989  0.46450735    -0.26400
N30         N  0.33949631  0.60916348  0.46857883    -0.34300
C31         C  0.33973061  0.60134013  0.49656250     0.01900
C32         C  0.33666904  0.62793275  0.51124420     0.07900
C33         C  0.33494932  0.65193429  0.49023080    -0.05200
H34         H  0.34004702  0.57766557  0.50539364     0.08600
H35         H  0.33091101  0.67617339  0.49330376     0.09800
Cu36       Cu  0.33601208  0.57823748  0.43700454     0.44200
Cu37       Cu  0.33158031  0.66031442  0.42331244     0.42000
Cu38       Cu  0.30686265  0.60585704  0.37120388     0.43900
N39         N  0.31951096  0.54922152  0.40873847    -0.33800
N40         N  0.30754370  0.55915306  0.38466106    -0.28100
C41         C  0.29542592  0.53515240  0.37342256    -0.04200
C42         C  0.29984270  0.50909119  0.39166737     0.08000
C43         C  0.31523392  0.51893320  0.41369922     0.01800
H44         H  0.28286998  0.53703331  0.35457316     0.09500
H45         H  0.32131869  0.50562698  0.43299844     0.08600
N46         N  0.31577739  0.65192154  0.36140041    -0.35300
N47         N  0.32580759  0.67109561  0.37949769    -0.27500
C48         C  0.33378082  0.69665953  0.36461445    -0.02700
C49         C  0.32813241  0.69353052  0.33591879     0.05900
C50         C  0.31677774  0.66491112  0.33477013     0.04000
H51         H  0.34433861  0.71510357  0.37387884     0.09100
H52         H  0.31200156  0.65306084  0.31576327     0.07900
N53         N  0.19956279  0.37271675  0.45407181    -0.26400
N54         N  0.22037057  0.38774792  0.46216142    -0.34300
C55         C  0.21898410  0.39266027  0.48994160     0.01900
C56         C  0.19640018  0.37990455  0.50027225     0.07900
C57         C  0.18440592  0.36730700  0.47698334    -0.05200
H58         H  0.23265833  0.40634027  0.50140689     0.08600
H59         H  0.16530457  0.35716621  0.47627123     0.09800
Cu60       Cu  0.24753987  0.40699232  0.43518935     0.44200
Cu61       Cu  0.19266429  0.36492770  0.41112741     0.42000
Cu62       Cu  0.23486218  0.41197481  0.36181966     0.43900
N63         N  0.26669526  0.43737033  0.40801939    -0.33800
N64         N  0.26079136  0.44118357  0.38057643    -0.28100
C65         C  0.27259319  0.46668945  0.36974052    -0.04200
C66         C  0.28674705  0.47915816  0.39160597     0.08000
C67         C  0.28263823  0.45983052  0.41545125     0.01800
H68         H  0.27010411  0.47617096  0.34801992     0.09500
H69         H  0.28892281  0.46330426  0.43712494     0.08600
N70         N  0.20912485  0.37854175  0.34970678    -0.35300
N71         N  0.19378208  0.36211099  0.36686876    -0.27500
C72         C  0.17867143  0.34436345  0.35098016    -0.02700
C73         C  0.18504601  0.34978963  0.32263317     0.05900
C74         C  0.20432799  0.37154854  0.32264249     0.04000
H75         H  0.16378663  0.32938356  0.35952099     0.09100
H76         H  0.21317575  0.38283556  0.30423339     0.07900
N77         N  0.32027352  0.64169325  0.58531701    -0.26400
N78         N  0.31943912  0.61122003  0.58489128    -0.34300
C79         C  0.32618401  0.60232036  0.55921771     0.01900
C80         C  0.33137341  0.62830971  0.54204260     0.07900
C81         C  0.32746899  0.65310516  0.55926740    -0.05200
H82         H  0.32565903  0.57861853  0.55305689     0.08600
H83         H  0.32896812  0.67748334  0.55309262     0.09800
Cu84       Cu  0.30395379  0.58268109  0.61625868     0.44200
Cu85       Cu  0.31006132  0.66364684  0.62237942     0.42000
Cu86       Cu  0.27933812  0.61012413  0.67855467     0.43900
N87         N  0.27854433  0.55743556  0.64095966    -0.33800
N88         N  0.26878202  0.56703348  0.66474847    -0.28100
C89         C  0.25025935  0.54712912  0.67371764    -0.04200
C90         C  0.24824943  0.52438257  0.65411313     0.08000
C91         C  0.26643486  0.53183094  0.63372997     0.01800
H92         H  0.23780141  0.55037395  0.69166806     0.09500
H93         H  0.26961556  0.52047335  0.61412960     0.08600
N94         N  0.29176054  0.65516981  0.68407575    -0.35300
N95         N  0.30174330  0.67447968  0.66437185    -0.27500
C96         C  0.30715272  0.70135446  0.67629747    -0.02700
C97         C  0.30047879  0.69856516  0.70471711     0.05900
C98         C  0.29085085  0.66912193  0.70890064     0.04000
H99         H  0.31576301  0.72109484  0.66522257     0.09100
H100        H  0.28399791  0.65838981  0.72863191     0.07900
N101        N  0.17598792  0.37939764  0.57406519    -0.26400
N102        N  0.18272504  0.40845933  0.56903947    -0.34300
C103        C  0.18884120  0.41313086  0.54161970     0.01900
C104        C  0.18569651  0.38584496  0.52829595     0.07900
C105        C  0.17745166  0.36473479  0.54946219    -0.05200
H106        H  0.19704322  0.43424621  0.53256890     0.08600
H107        H  0.17511247  0.34010411  0.54773106     0.09800
Cu108      Cu  0.18943602  0.43903328  0.60004079     0.44200
Cu109      Cu  0.17019047  0.36205100  0.61584893     0.42000
Cu110      Cu  0.18962559  0.41602499  0.67294490     0.43900
N111        N  0.20452384  0.46608074  0.63056861    -0.33800
N112        N  0.20496024  0.45831432  0.65814771    -0.28100
C113        C  0.21915252  0.47927560  0.67167630    -0.04200
C114        C  0.22822876  0.50074528  0.65127449     0.08000
C115        C  0.21853697  0.49150720  0.62560239     0.01800
H116        H  0.22429039  0.47754212  0.69416027     0.09500
H117        H  0.22268139  0.50145683  0.60457193     0.08600
N118        N  0.17575102  0.37098340  0.67988677    -0.35300
N119        N  0.16875902  0.35207486  0.65991418    -0.27500
C120        C  0.16227256  0.32459168  0.67255726    -0.02700
C121        C  0.16542324  0.32631950  0.70167484     0.05900
C122        C  0.17397998  0.35589062  0.70563054     0.04000
H123        H  0.15684194  0.30448422  0.66132365     0.09100
H124        H  0.17934857  0.36543133  0.72564406     0.07900
N125        N  0.43127039  0.90713496  0.45390356    -0.26400
N126        N  0.43162506  0.93752555  0.45571483    -0.34300
C127        C  0.42810497  0.94440707  0.48284880     0.01900
C128        C  0.42559443  0.91711366  0.49923452     0.07900
C129        C  0.42766194  0.89381979  0.48020397    -0.05200
H130        H  0.42877014  0.96759882  0.49029024     0.08600
H131        H  0.42733391  0.86909440  0.48521073     0.09800
Cu132      Cu  0.44188169  0.96854018  0.42304542     0.44200
Cu133      Cu  0.43760274  0.88642029  0.41540443     0.42000
Cu134      Cu  0.46612156  0.93898627  0.35986570     0.43900
N135        N  0.46317195  0.99481022  0.39417281    -0.33800
N136        N  0.47263418  0.98410740  0.37063755    -0.28100
C137        C  0.48898624  0.00505682  0.35893772    -0.04200
C138        C  0.48985349  0.02994324  0.37619458     0.08000
C139        C  0.47342440  0.02248331  0.39836567     0.01800
H140        H  0.50114666  0.00115903  0.34087461     0.09500
H141        H  0.47080357  0.03507979  0.41738089     0.08600
N142        N  0.45626011  0.89332718  0.35443078    -0.35300
N143        N  0.44532844  0.87453961  0.37377943    -0.27500
C144        C  0.43884553  0.84821596  0.36153505    -0.02700
C145        C  0.44650199  0.85053578  0.33337935     0.05900
C146        C  0.45735156  0.87940161  0.32965139     0.04000
H147        H  0.42839193  0.82952258  0.37204300     0.09100
H148        H  0.46383234  0.89041238  0.30987185     0.07900
N149        N  0.05794384  0.16082328  0.45968359    -0.26400
N150        N  0.05985199  0.13027396  0.46231011    -0.34300
C151        C  0.05996149  0.12097384  0.49003578     0.01900
C152        C  0.05803273  0.14688110  0.50586615     0.07900
C153        C  0.05681220  0.17187201  0.48593356    -0.05200
H154        H  0.06044029  0.09697382  0.49797872     0.08600
H155        H  0.05447396  0.19611272  0.49013054     0.09800
Cu156      Cu  0.05886745  0.10234722  0.42815095     0.44200
Cu157      Cu  0.05568342  0.18426001  0.41966409     0.42000
Cu158      Cu  0.05010281  0.13627327  0.35693571     0.43900
N159        N  0.04841607  0.07741378  0.39372770    -0.33800
N160        N  0.04453370  0.08955724  0.36749443    -0.28100
C161        C  0.03233315  0.06873184  0.35193344    -0.04200
C162        C  0.02848619  0.04231695  0.36930461     0.08000
C163        C  0.03883633  0.04880103  0.39558464     0.01800
H164        H  0.02411812  0.07380685  0.33073894     0.09500
H165        H  0.03673182  0.03517421  0.41541601     0.08600
N166        N  0.05239913  0.18434867  0.35471551    -0.35300
N167        N  0.05416909  0.20138277  0.37722548    -0.27500
C168        C  0.05275142  0.23152809  0.36838102    -0.02700
C169        C  0.04970522  0.23349904  0.33908683     0.05900
C170        C  0.04970861  0.20327811  0.33096812     0.04000
H171        H  0.05222286  0.25052509  0.38238038     0.09100
H172        H  0.04650547  0.19556492  0.30972059     0.07900
N173        N  0.42553182  0.89740526  0.57606177    -0.26400
N174        N  0.42273145  0.92788084  0.57523293    -0.34300
C175        C  0.42151709  0.93905337  0.54801448     0.01900
C176        C  0.42359015  0.91449120  0.53057248     0.07900
C177        C  0.42604237  0.88827975  0.54906110    -0.05200
H178        H  0.42049342  0.96346860  0.54148833     0.08600
H179        H  0.42907051  0.86459520  0.54335445     0.09800
Cu180      Cu  0.42585458  0.95352172  0.61069290     0.44200
Cu181      Cu  0.43063312  0.87188243  0.61492858     0.42000
Cu182      Cu  0.44672193  0.91784089  0.67771799     0.43900
N183        N  0.44384175  0.97728546  0.64203842    -0.33800
N184        N  0.45264922  0.96450504  0.66669607    -0.28100
C185        C  0.46900408  0.98434690  0.67872368    -0.04200
C186        C  0.47059029  0.01057575  0.66042452     0.08000
C187        C  0.45435400  0.00515843  0.63755366     0.01800
H188        H  0.48114669  0.97859405  0.69748134     0.09500
H189        H  0.45263919  0.01892993  0.61760330     0.08600
N190        N  0.44056331  0.87023457  0.67938891    -0.35300
N191        N  0.43473211  0.85400096  0.65709182    -0.27500
C192        C  0.43259052  0.82400709  0.66592901    -0.02700
C193        C  0.43733988  0.82132283  0.69502435     0.05900
C194        C  0.44252245  0.85090618  0.70291445     0.04000
H195        H  0.42862701  0.80545632  0.65208463     0.09100
H196        H  0.44759443  0.85791661  0.72399881     0.07900
N197        N  0.04686986  0.16012348  0.58088232    -0.26400
N198        N  0.04722984  0.12956311  0.58113209    -0.34300
C199        C  0.05240496  0.12056402  0.55497816     0.01900
C200        C  0.05529786  0.14666909  0.53706878     0.07900
C201        C  0.05177418  0.17148967  0.55420774    -0.05200
H202        H  0.05217676  0.09675916  0.54905779     0.08600
H203        H  0.05153246  0.19586514  0.54752392     0.09800
Cu204      Cu  0.03417973  0.10160037  0.61451400     0.44200
Cu205      Cu  0.03675932  0.18302642  0.61708638     0.42000
Cu206      Cu  0.00340068  0.13500859  0.67319413     0.43900
N207        N  0.00804723  0.07813240  0.63989181    -0.33800
N208        N  0.99557448  0.09018106  0.66112730    -0.28100
C209        C  0.97667485  0.07059392  0.66964429    -0.04200
C210        C  0.97755499  0.04523929  0.65279645     0.08000
C211        C  0.99751636  0.05103054  0.63416263     0.01800
H212        H  0.96221504  0.07550508  0.68533426     0.09500
H213        H  0.00270247  0.03764923  0.61626386     0.08600
N214        N  0.01513177  0.18074854  0.67722228    -0.35300
N215        N  0.02650612  0.19788891  0.65692139    -0.27500
C216        C  0.03032345  0.22639066  0.66611318    -0.02700
C217        C  0.02102723  0.22727124  0.69345132     0.05900
C218        C  0.01169416  0.19792827  0.69997672     0.04000
H219        H  0.03874395  0.24525118  0.65356652     0.09100
H220        H  0.00286751  0.18962856  0.71958038     0.07900
N221        N  0.30313223  0.30356386  0.79260569    -0.02600
C222        C  0.32442799  0.28446428  0.79063284     0.00000
C223        C  0.32278014  0.26855828  0.76602349    -0.22900
C224        C  0.29994873  0.27802279  0.75233934    -0.23100
C225        C  0.28816842  0.29978406  0.76872826    -0.00100
H226        H  0.33690177  0.25200570  0.75858292     0.13600
H227        H  0.29228559  0.26869611  0.73310435     0.13700
N228        N  0.16381437  0.30124645  0.72311229    -0.02600
C229        C  0.14519119  0.27916248  0.72555802     0.00000
C230        C  0.15095563  0.25929846  0.74917122    -0.22900
C231        C  0.17360026  0.26882698  0.76120976    -0.23100
C232        C  0.18108516  0.29477438  0.74523359    -0.00100
H233        H  0.13941489  0.24053294  0.75782682     0.13600
H234        H  0.18377465  0.25747706  0.77947509     0.13700
N235        N  0.44763701  0.25168273  0.81359834    -0.02600
C236        C  0.43047433  0.27631638  0.81229043     0.00000
C237        C  0.43928605  0.29928257  0.79325820    -0.22900
C238        C  0.46174314  0.28819822  0.78193826    -0.23100
C239        C  0.46619818  0.25867304  0.79410178    -0.00100
H240        H  0.42930523  0.32079517  0.78620294     0.13600
H241        H  0.47313088  0.30012917  0.76577718     0.13700
N242        N  0.01950068  0.25424269  0.71018777    -0.02600
C243        C  0.03639943  0.27827379  0.70977186     0.00000
C244        C  0.02650261  0.30164713  0.72578722    -0.22900
C245        C  0.00336658  0.29179540  0.73656882    -0.23100
C246        C  0.99962753  0.26251070  0.72725157    -0.00100
H247        H  0.03606017  0.32255598  0.73141163     0.13600
H248        H  0.99114657  0.30413184  0.75088528     0.13700
N249        N  0.22815179  0.66927643  0.06309028    -0.26400
N250        N  0.24824909  0.65033468  0.05963468    -0.34300
C251        C  0.25115565  0.64634295  0.03187350     0.01900
C252        C  0.23187062  0.66343540  0.01657134     0.07900
C253        C  0.21756359  0.67798857  0.03709968    -0.05200
H254        H  0.26540293  0.63049187  0.02366436     0.08600
H255        H  0.20019606  0.69254518  0.03352522     0.09800
Cu256      Cu  0.26699097  0.62477044  0.09258395     0.44200
Cu257      Cu  0.21770834  0.67835556  0.10463500     0.42000
Cu258      Cu  0.24407056  0.62191226  0.16347154     0.43900
N259        N  0.27432675  0.58764416  0.12122070    -0.33800
N260        N  0.26475738  0.58470450  0.14708424    -0.28100
C261        C  0.27002669  0.55543213  0.15786895    -0.04200
C262        C  0.28353176  0.53959225  0.13755513     0.08000
C263        C  0.28585827  0.56091989  0.11480850     0.01800
H264        H  0.26382526  0.54614098  0.17843076     0.09500
H265        H  0.29405492  0.55692305  0.09428119     0.08600
N266        N  0.22783877  0.66615592  0.16926443    -0.35300
N267        N  0.21848864  0.68556511  0.14835686    -0.27500
C268        C  0.21264290  0.71298595  0.15907463    -0.02700
C269        C  0.21861498  0.71102592  0.18792549     0.05900
C270        C  0.22806428  0.68098133  0.19382770     0.04000
H271        H  0.20625757  0.73355034  0.14637885     0.09100
H272        H  0.23582641  0.67109321  0.21399939     0.07900
N273        N  0.31526614  0.37139371  0.06307650    -0.26400
N274        N  0.32074775  0.40102453  0.05974343    -0.34300
C275        C  0.32414683  0.40863137  0.03205385     0.01900
C276        C  0.32052043  0.38264340  0.01670076     0.07900
C277        C  0.31494582  0.35922871  0.03713541    -0.05200
H278        H  0.32768637  0.43192515  0.02362319     0.08600
H279        H  0.31010173  0.33557769  0.03332557     0.09800
Cu280      Cu  0.31864010  0.43118328  0.09215475     0.44200
Cu281      Cu  0.30710846  0.35261834  0.10395097     0.42000
Cu282      Cu  0.29365866  0.40927293  0.16079093     0.43900
N283        N  0.30630681  0.46271526  0.12069965    -0.33800
N284        N  0.29597237  0.45553235  0.14566905    -0.28100
C285        C  0.28691991  0.48190026  0.15663625    -0.04200
C286        C  0.29185462  0.50660863  0.13739539     0.08000
C287        C  0.30423242  0.49339184  0.11507189     0.01800
H288        H  0.27659260  0.48285430  0.17642460     0.09500
H289        H  0.31016680  0.50497435  0.09532899     0.08600
N290        N  0.29537863  0.36095105  0.16725797    -0.35300
N291        N  0.30045230  0.34135728  0.14719808    -0.27500
C292        C  0.29955850  0.31221817  0.15871306    -0.02700
C293        C  0.29337556  0.31342425  0.18708057     0.05900
C294        C  0.29096619  0.34458066  0.19198838     0.04000
H295        H  0.30213077  0.29161063  0.14696447     0.09100
H296        H  0.28579961  0.35463139  0.21171669     0.07900
N297        N  0.21118231  0.66577601  0.94075715    -0.26400
N298        N  0.23021873  0.64457175  0.94235900    -0.34300
C299        C  0.24020688  0.64162819  0.96886998     0.01900
C300        C  0.22698349  0.66175440  0.98550859     0.07900
C301        C  0.20852497  0.67691566  0.96699923    -0.05200
H302        H  0.25549799  0.62497857  0.97565076     0.08600
H303        H  0.19413949  0.69426767  0.97229477     0.09800
Cu304      Cu  0.24062365  0.61668048  0.91050059     0.44200
Cu305      Cu  0.19136485  0.67565508  0.90132735     0.42000
Cu306      Cu  0.20524762  0.61416920  0.84785125     0.43900
N307        N  0.24621493  0.58152830  0.88370704    -0.33800
N308        N  0.23219295  0.57890132  0.86019531    -0.28100
C309        C  0.23910291  0.55198914  0.84874013    -0.04200
C310        C  0.25848452  0.53736150  0.86620919     0.08000
C311        C  0.26237265  0.55688526  0.88805076     0.01800
H312        H  0.23048443  0.54356065  0.82954805     0.09500
H313        H  0.27534728  0.55306529  0.90642978     0.08600
N314        N  0.18575520  0.65669553  0.83935609    -0.35300
N315        N  0.18072275  0.67846693  0.85749466    -0.27500
C316        C  0.17051288  0.70375350  0.84255704    -0.02700
C317        C  0.16937202  0.69742468  0.81399698     0.05900
C318        C  0.17911515  0.66759044  0.81276550     0.04000
H319        H  0.16600194  0.72569467  0.85151543     0.09100
H320        H  0.18261641  0.65530854  0.79374562     0.07900
N321        N  0.31388495  0.37121048  0.93978295    -0.26400
N322        N  0.31885843  0.40101734  0.94016985    -0.34300
C323        C  0.32281826  0.40864932  0.96709588     0.01900
C324        C  0.32014088  0.38258202  0.98511217     0.07900
C325        C  0.31452377  0.35901353  0.96704024    -0.05200
H326        H  0.32584204  0.43207994  0.97314074     0.08600
H327        H  0.31023236  0.33523263  0.97330078     0.09800
Cu328      Cu  0.31410428  0.43227458  0.90559855     0.44200
Cu329      Cu  0.30476294  0.35204283  0.90070589     0.42000
Cu330      Cu  0.27947855  0.41189670  0.84473129     0.43900
N331        N  0.29445246  0.46453716  0.87866903    -0.33800
N332        N  0.27973866  0.45735884  0.85676053    -0.28100
C333        C  0.26537564  0.48268288  0.84736489    -0.04200
C334        C  0.27143457  0.50670385  0.86455771     0.08000
C335        C  0.29003877  0.49427098  0.88392632     0.01800
H336        H  0.25057460  0.48302869  0.83057870     0.09500
H337        H  0.29831428  0.50524704  0.90202279     0.08600
N338        N  0.28855424  0.36582324  0.83788265    -0.35300
N339        N  0.29784090  0.34456583  0.85726200    -0.27500
C340        C  0.30371052  0.31846528  0.84403872    -0.02700
C341        C  0.29775177  0.32375311  0.81524236     0.05900
C342        C  0.28822501  0.35385442  0.81208333     0.04000
H343        H  0.31242302  0.29763993  0.85444754     0.09100
H344        H  0.28262297  0.36662911  0.79234745     0.07900
N345        N  0.33880998  0.71088862  0.31186369    -0.02600
C346        C  0.36337265  0.72215797  0.31202652     0.00000
C347        C  0.37290967  0.72353980  0.28472096    -0.22900
C348        C  0.35342873  0.71427470  0.26707775    -0.23100
C349        C  0.33226958  0.70711842  0.28394916    -0.00100
H350        H  0.39068339  0.73447639  0.27777698     0.13600
H351        H  0.35385897  0.71637572  0.24405697     0.13700
N352        N  0.21919684  0.73705446  0.20586274    -0.02600
C353        C  0.20305702  0.76279950  0.20269389     0.00000
C354        C  0.21338749  0.78634145  0.21795385    -0.22900
C355        C  0.23587862  0.77495818  0.23103993    -0.23100
C356        C  0.23892501  0.74455316  0.22402387    -0.00100
H357        H  0.20443558  0.80849837  0.22197704     0.13600
H358        H  0.24778291  0.78693520  0.24598591     0.13700
N359        N  0.43910175  0.83116957  0.31072226    -0.02600
C360        C  0.41486099  0.81939961  0.30812949     0.00000
C361        C  0.40878216  0.81599885  0.27973759    -0.22900
C362        C  0.43017777  0.82451500  0.26453302    -0.23100
C363        C  0.44899243  0.83324660  0.28393714    -0.00100
H364        H  0.39207843  0.80428001  0.27135742     0.13600
H365        H  0.43252022  0.82098357  0.24213641     0.13700
N366        N  0.07650101  0.79312845  0.21254101    -0.02600
C367        C  0.09422453  0.76891636  0.21314655     0.00000
C368        C  0.08817638  0.74724101  0.23470688    -0.22900
C369        C  0.06643265  0.75812014  0.24760020    -0.23100
C370        C  0.05957515  0.78645866  0.23402531    -0.00100
H371        H  0.09926676  0.72651835  0.24179272     0.13600
H372        H  0.05684811  0.74661891  0.26543702     0.13700
N373        N  0.17089722  0.34063872  0.29778150    -0.02600
C374        C  0.14453794  0.33888922  0.29609713     0.00000
C375        C  0.13605564  0.34171293  0.26800873    -0.22900
C376        C  0.15784712  0.34429302  0.25178292    -0.23100
C377        C  0.17928596  0.34298419  0.27038435    -0.00100
H378        H  0.11639941  0.33828683  0.26006055     0.13600
H379        H  0.15788980  0.34346913  0.22883280     0.13700
N380        N  0.28776373  0.28701946  0.20588239    -0.02600
C381        C  0.29964614  0.25859372  0.20486282     0.00000
C382        C  0.28476332  0.23628996  0.21866566    -0.22900
C383        C  0.26360750  0.25134314  0.22915779    -0.23100
C384        C  0.26593473  0.28251401  0.22153441    -0.00100
H385        H  0.28998501  0.21206675  0.22316028     0.13600
H386        H  0.24895362  0.24090989  0.24266417     0.13700
N387        N  0.04263005  0.26125910  0.32204524    -0.02600
C388        C  0.05272315  0.28966551  0.32535982     0.00000
C389        C  0.03708650  0.31217359  0.31078162    -0.22900
C390        C  0.01755669  0.29715579  0.29732056    -0.23100
C391        C  0.02148925  0.26589482  0.30422088    -0.00100
H392        H  0.04111516  0.33656659  0.30744321     0.13600
H393        H  0.00302649  0.30774058  0.28253475     0.13700
N394        N  0.42164415  0.21300135  0.23645844    -0.02600
C395        C  0.39524976  0.21165459  0.23648918     0.00000
C396        C  0.38665966  0.20858564  0.26414686    -0.22900
C397        C  0.40824437  0.20928015  0.28170653    -0.23100
C398        C  0.42961847  0.21260190  0.26429692    -0.00100
H399        H  0.36658790  0.21016915  0.27084088     0.13600
H400        H  0.40775445  0.21100081  0.30455310     0.13700
N401        N  0.08294462  0.87538050  0.06559349    -0.26400
N402        N  0.08720965  0.90521406  0.06089601    -0.34300
C403        C  0.08832073  0.91191666  0.03277761     0.01900
C404        C  0.08432049  0.88509535  0.01883017     0.07900
C405        C  0.08106274  0.86220117  0.04030306    -0.05200
H406        H  0.08990788  0.93514007  0.02321774     0.08600
H407        H  0.07631709  0.83825521  0.03772976     0.09800
Cu408      Cu  0.08457095  0.93701841  0.09178946     0.44200
Cu409      Cu  0.07746119  0.85665623  0.10667630     0.42000
Cu410      Cu  0.06245091  0.91315020  0.16122142     0.43900
N411        N  0.06825388  0.96734963  0.11912940    -0.33800
N412        N  0.05888315  0.95911505  0.14436060    -0.28100
C413        C  0.04666303  0.98408221  0.15465819    -0.04200
C414        C  0.04850097  0.00897625  0.13475569     0.08000
C415        C  0.06235548  0.99734437  0.11265047     0.01800
H416        H  0.03654877  0.98389466  0.17464104     0.09500
H417        H  0.06692774  0.00941811  0.09264113     0.08600
N418        N  0.06939258  0.86541928  0.16991388    -0.35300
N419        N  0.07454184  0.84557220  0.15013325    -0.27500
C420        C  0.07804839  0.81696737  0.16261717    -0.02700
C421        C  0.07495660  0.81879065  0.19155221     0.05900
C422        C  0.06953958  0.84975113  0.19564067     0.04000
H423        H  0.08238883  0.79635900  0.15140902     0.09100
H424        H  0.06589259  0.86006891  0.21564700     0.07900
N425        N  0.45175297  0.19066992  0.17157889    -0.26400
N426        N  0.46312580  0.17065016  0.19073547    -0.34300
C427        C  0.45481570  0.17680267  0.21680738     0.01900
C428        C  0.43722667  0.20152691  0.21398319     0.07900
C429        C  0.43538807  0.20963446  0.18508211    -0.05200
H430        H  0.46034446  0.16341198  0.23624344     0.08600
H431        H  0.42310020  0.22776360  0.17465099     0.09800
Cu432      Cu  0.48814266  0.13363347  0.18215738     0.44200
Cu433      Cu  0.45913908  0.19201565  0.12779156     0.42000
Cu434      Cu  0.01390062  0.12649997  0.09355273     0.43900
N435        N  0.01453231  0.08316722  0.14520534    -0.33800
N436        N  0.02406410  0.08803922  0.11955113    -0.28100
C437        C  0.03772268  0.06287919  0.11253045    -0.04200
C438        C  0.03692750  0.04067974  0.13486111     0.08000
C439        C  0.02199562  0.05431632  0.15539762     0.01800
H440        H  0.04665963  0.06053971  0.09209078     0.09500
H441        H  0.01652167  0.04384698  0.17580064     0.08600
N442        N  0.49533110  0.17001465  0.08349457    -0.35300
N443        N  0.47373729  0.18658585  0.08701318    -0.27500
C444        C  0.46251587  0.19381433  0.06107972    -0.02700
C445        C  0.47781326  0.18069843  0.04062934     0.05900
C446        C  0.49837041  0.16604005  0.05574145     0.04000
H447        H  0.44340885  0.20477967  0.05766783     0.09100
H448        H  0.01009649  0.13214493  0.02630908     0.07900
N449        N  0.02361850  0.94949466  0.86131234    -0.26400
N450        N  0.03978997  0.95778994  0.88161146    -0.34300
C451        C  0.03554097  0.98768399  0.88633129     0.01900
C452        C  0.01576028  0.99932380  0.86816780     0.07900
C453        C  0.00864798  0.97454667  0.85228582    -0.05200
H454        H  0.04500194  0.99948946  0.90325757     0.08600
H455        H  0.99256138  0.97415234  0.83703421     0.09800
Cu456      Cu  0.06252600  0.92793338  0.90769750     0.44200
Cu457      Cu  0.02170160  0.90284466  0.85146079     0.42000
Cu458      Cu  0.05134611  0.84917640  0.91017061     0.43900
N459        N  0.07257983  0.89959042  0.94293390    -0.33800
N460        N  0.06705304  0.86993659  0.94520435    -0.28100
C461        C  0.07159116  0.85917522  0.97245035    -0.04200
C462        C  0.08031510  0.88358327  0.98780850     0.08000
C463        C  0.08075381  0.90868578  0.96828827     0.01800
H464        H  0.06752514  0.83595349  0.98072194     0.09500
H465        H  0.08487443  0.93242319  0.97254097     0.08600
N466        N  0.03863307  0.83637688  0.87029148    -0.35300
N467        N  0.02751220  0.85470169  0.84960839    -0.27500
C468        C  0.02157704  0.83738604  0.82743931    -0.02700
C469        C  0.02993551  0.80713831  0.83448454     0.05900
C470        C  0.04047030  0.80732750  0.86170064     0.04000
H471        H  0.01202827  0.84622228  0.80779525     0.09100
H472        H  0.04831706  0.78764050  0.87465596     0.07900
N473        N  0.46186370  0.17905672  0.96452596    -0.26400
N474        N  0.47119511  0.15067342  0.97069245    -0.34300
C475        C  0.47687332  0.14708241  0.99860359     0.01900
C476        C  0.47079526  0.17440616  0.01101044     0.07900
C477        C  0.46113545  0.19436404  0.98883230    -0.05200
H478        H  0.99397191  0.11640672  0.98280639     0.08600
H479        H  0.45566663  0.21858331  0.98994966     0.09800
Cu480      Cu  0.47928194  0.11865277  0.94114168     0.44200
Cu481      Cu  0.45447786  0.19431998  0.92213062     0.42000
Cu482      Cu  0.47072555  0.13583294  0.86748631     0.43900
N483        N  0.98936488  0.07286997  0.88936101    -0.33800
N484        N  0.48631928  0.09308812  0.88367879    -0.28100
C485        C  0.98782604  0.04799198  0.85057441    -0.04200
C486        C  0.00261760  0.02976752  0.87054896     0.08000
C487        C  0.00311676  0.04640902  0.89475835     0.01800
H488        H  0.98319302  0.04279841  0.82883176     0.09500
H489        H  0.01239943  0.03955546  0.91510975     0.08600
N490        N  0.45784681  0.18179811  0.85866561    -0.35300
N491        N  0.45216110  0.20220425  0.87784170    -0.27500
C492        C  0.44642669  0.22987176  0.86424270    -0.02700
C493        C  0.44884376  0.22679441  0.83535970     0.05900
C494        C  0.45585960  0.19609067  0.83242911     0.04000
H495        H  0.44214402  0.25098883  0.87470902     0.09100
H496        H  0.46018651  0.18520151  0.81286405     0.07900
C497        C  0.00687021  0.24212501  0.28947163    -0.04600
C498        C  0.00451372  0.24545901  0.25965077    -0.32000
C499        C  0.46982177  0.24549229  0.25830809     0.37200
C500        C  0.45503675  0.22432922  0.27497951    -0.05000
C501        C  0.46191407  0.21913032  0.30413879    -0.31900
C502        C  0.48141550  0.23628194  0.31698323     0.37100
H503        H  0.01611034  0.26236130  0.24796860     0.17500
O504        O  0.98209634  0.23719649  0.21617012    -0.59400
H505        H  0.45093253  0.20325001  0.31761365     0.17500
O506        O  0.48456494  0.23451591  0.34613687    -0.59500
H507        H  0.48767986  0.21227985  0.35185069     0.44500
H508        H  0.97075489  0.25614829  0.21474290     0.44400
C509        C  0.37765912  0.22696921  0.21450152    -0.04600
C510        C  0.37221597  0.25864810  0.21703894    -0.32000
C511        C  0.34726233  0.27127218  0.21028050     0.37200
C512        C  0.32779583  0.25227345  0.19942628    -0.05000
C513        C  0.33519013  0.22236347  0.19162663    -0.31900
C514        C  0.35970476  0.20934430  0.19989819     0.37100
H515        H  0.38585697  0.27235986  0.22860920     0.17500
O516        O  0.34109536  0.30015716  0.21913279    -0.59400
H517        H  0.32072705  0.20754078  0.18273604     0.17500
O518        O  0.36473101  0.17844790  0.19669450    -0.59500
H519        H  0.35673051  0.16744475  0.21332716     0.44500
H520        H  0.34887640  0.31485911  0.20492852     0.44400
C521        C  0.12824463  0.32271550  0.31739581    -0.04600
C522        C  0.12464841  0.29108234  0.31422033    -0.32000
C523        C  0.10070752  0.27776774  0.32056243     0.37200
C524        C  0.08058945  0.29591330  0.33200604    -0.05000
C525        C  0.08664708  0.32559795  0.34078576    -0.31900
C526        C  0.11011143  0.33936727  0.33285048     0.37100
H527        H  0.13867867  0.27803940  0.30240334     0.17500
O528        O  0.09610477  0.24887727  0.31126642    -0.59400
H529        H  0.07168001  0.33979837  0.35001072     0.17500
O530        O  0.11346461  0.37022728  0.33668732    -0.59500
H531        H  0.12153595  0.37091966  0.35599375     0.44500
H532        H  0.09049690  0.25234713  0.29097761     0.44400
C533        C  0.20618699  0.33515747  0.26048761    -0.04600
C534        C  0.21227208  0.34253442  0.23172714    -0.32000
C535        C  0.23282841  0.32720651  0.21845890     0.37200
C536        C  0.24924497  0.30614777  0.23464361    -0.05000
C537        C  0.24535513  0.30201343  0.26411083    -0.31900
C538        C  0.22353100  0.31492543  0.27676774     0.37100
H539        H  0.19952319  0.35802561  0.21857461     0.17500
O540        O  0.23443041  0.32978262  0.18930490    -0.59400
H541        H  0.25767682  0.28560180  0.27688540     0.17500
O542        O  0.21811699  0.30460205  0.30406362    -0.59500
H543        H  0.20719867  0.28616117  0.30207628     0.44500
H544        H  0.23659703  0.35212296  0.18419381     0.44400
C545        C  0.47739434  0.83463800  0.27651214    -0.04600
C546        C  0.99386146  0.82994449  0.23436804    -0.32000
C547        C  0.01741224  0.81826837  0.22410621     0.37200
C548        C  0.03660196  0.80505895  0.24328377    -0.05000
C549        C  0.03136313  0.80419680  0.27262614    -0.31900
C550        C  0.49768399  0.82563032  0.29635339     0.37100
H551        H  0.46926723  0.84653394  0.23165250     0.17500
O552        O  0.01999942  0.81709891  0.19523483    -0.59400
H553        H  0.04571255  0.79412840  0.28794394     0.17500
O554        O  0.49297432  0.81990071  0.32471218    -0.59500
H555        H  0.48970381  0.79738990  0.32698109     0.44500
H556        H  0.01423978  0.79614780  0.19066666     0.44400
C557        C  0.17490367  0.76383998  0.19292325    -0.04600
C558        C  0.16008903  0.73686369  0.19430403    -0.32000
C559        C  0.13278697  0.73871628  0.19545487     0.37200
C560        C  0.11992815  0.76763197  0.19848021    -0.05000
C561        C  0.13427527  0.79454793  0.19311414    -0.31900
C562        C  0.16120102  0.79264312  0.18855980     0.37100
H563        H  0.16934885  0.71415473  0.19683540     0.17500
O564        O  0.11914206  0.71177295  0.19641887    -0.59400
H565        H  0.12539252  0.81729326  0.19452584     0.17500
O566        O  0.17419007  0.81951824  0.18246404    -0.59500
H567        H  0.17656402  0.82030338  0.16156302     0.44500
H568        H  0.11194301  0.71022865  0.17679855     0.44400
C569        C  0.37356987  0.74429931  0.33219488    -0.04600
C570        C  0.40052969  0.74270630  0.33838803    -0.32000
C571        C  0.41511827  0.76979737  0.33702802     0.37200
C572        C  0.40240385  0.79851318  0.32964844    -0.05000
C573        C  0.37505024  0.80039726  0.33108777    -0.31900
C574        C  0.36048579  0.77331871  0.33265970     0.37100
H575        H  0.41085542  0.72050077  0.33887936     0.17500
O576        O  0.44189546  0.76728761  0.33744376    -0.59400
H577        H  0.36492959  0.82237112  0.32594080     0.17500
O578        O  0.33397465  0.77574330  0.32798506    -0.59500
H579        H  0.32629706  0.77079294  0.34684665     0.44500
H580        H  0.44666005  0.76186263  0.31794373     0.44400
C581        C  0.30509220  0.70619142  0.27130564    -0.04600
C582        C  0.30199803  0.69968768  0.24227708    -0.32000
C583        C  0.27960778  0.70979209  0.22626615     0.37200
C584        C  0.25857119  0.72379691  0.23979137    -0.05000
C585        C  0.26004243  0.72570661  0.26955263    -0.31900
C586        C  0.28315683  0.71821030  0.28512766     0.37100
H587        H  0.31808860  0.68968904  0.23105441     0.17500
O588        O  0.27969899  0.70856071  0.19718837    -0.59400
H589        H  0.24413852  0.73674996  0.28036190     0.17500
O590        O  0.28492736  0.72692427  0.31265732    -0.59500
H591        H  0.27365240  0.71253987  0.32376588     0.44500
H592        H  0.28692190  0.72853787  0.19002042     0.44400
C593        C  0.48783259  0.23834250  0.78501253    -0.04600
C594        C  0.50545420  0.22388872  0.80504182    -0.32000
C595        C  0.97241075  0.24112806  0.76679465     0.37200
C596        C  0.97774280  0.24327199  0.73748181    -0.05000
C597        C  0.51744861  0.22589201  0.74720153    -0.31900
C598        C  0.49323281  0.23732634  0.75573216     0.37100
H599        H  0.94453756  0.23103341  0.79854041     0.17500
O600        O  0.98947399  0.25244420  0.78630768    -0.59400
H601        H  0.52225634  0.22901259  0.72493893     0.17500
O602        O  0.47542737  0.24904120  0.73538759    -0.59500
H603        H  0.48343284  0.26774477  0.72633732     0.44500
H604        H  0.00117816  0.23461091  0.79248992     0.44400
C605        C  0.06456510  0.27725618  0.70192855    -0.04600
C606        C  0.07926314  0.24948782  0.70582121    -0.32000
C607        C  0.10655549  0.24977562  0.70877268     0.37200
C608        C  0.11947924  0.27826352  0.71002362    -0.05000
C609        C  0.10519921  0.30569756  0.70239557    -0.31900
C610        C  0.07818295  0.30511808  0.69710695     0.37100
H611        H  0.06982333  0.22753017  0.70911510     0.17500
O612        O  0.12042140  0.22210585  0.71193911    -0.59400
H613        H  0.11426847  0.32798788  0.70277226     0.17500
O614        O  0.06496192  0.33250803  0.68994375    -0.59500
H615        H  0.06212137  0.33270199  0.66899608     0.44500
H616        H  0.11314377  0.21050831  0.72866674     0.44400
C617        C  0.34828630  0.28223579  0.80914268    -0.04600
C618        C  0.36023994  0.25281731  0.81401792    -0.32000
C619        C  0.38722990  0.24953786  0.81858614     0.37200
C620        C  0.40250884  0.27614437  0.82076468    -0.05000
C621        C  0.38939874  0.30507206  0.82199320    -0.31900
C622        C  0.36275617  0.30854298  0.81478498     0.37100
H623        H  0.34925357  0.23228347  0.81014371     0.17500
O624        O  0.39837093  0.22060318  0.81699825    -0.59400
H625        H  0.40051224  0.32584200  0.82426012     0.17500
O626        O  0.35244726  0.33780411  0.80867303    -0.59500
H627        H  0.35224121  0.34783290  0.82712115     0.44500
H628        H  0.40093741  0.21806636  0.79639580     0.44400
C629        C  0.26080906  0.31114207  0.76265986    -0.04600
C630        C  0.24282033  0.31134379  0.78473024    -0.32000
C631        C  0.21594081  0.31113746  0.77873520     0.37200
C632        C  0.20673525  0.30902718  0.75044149    -0.05000
C633        C  0.22438127  0.31302617  0.72821776    -0.31900
C634        C  0.25125077  0.31486687  0.73416941     0.37100
H635        H  0.24928587  0.30864881  0.80678130     0.17500
O636        O  0.19872375  0.31087669  0.80078548    -0.59400
H637        H  0.21782150  0.31192525  0.70626880     0.17500
O638        O  0.26823659  0.31860781  0.71203099    -0.59500
H639        H  0.26576940  0.30067069  0.70010484     0.44500
H640        H  0.20276587  0.29157330  0.81266014     0.44400
C641        C  0.99207615  0.79331558  0.78090879    -0.04600
C642        C  0.47354089  0.80870450  0.80235372    -0.32000
C643        C  0.45910150  0.80595481  0.77700157     0.37200
C644        C  0.47213194  0.80480945  0.75094942    -0.05000
C645        C  0.99718042  0.80340498  0.72991233    -0.31900
C646        C  0.00819762  0.79993404  0.75744357     0.37100
H647        H  0.46387179  0.80486884  0.82250108     0.17500
O648        O  0.43299706  0.79961942  0.77838823    -0.59400
H649        H  0.00997826  0.80447825  0.71182347     0.17500
O650        O  0.03488445  0.79783582  0.76055460    -0.59500
H651        H  0.04028893  0.81896662  0.76483466     0.44500
H652        H  0.43224630  0.77690035  0.78279485     0.44400
C653        C  0.06848323  0.74948828  0.82377361    -0.04600
C654        C  0.08291135  0.77534433  0.81462737    -0.32000
C655        C  0.10849216  0.77198168  0.80532599     0.37200
C656        C  0.12017559  0.74224992  0.80422523    -0.05000
C657        C  0.10722070  0.71675541  0.81654886    -0.31900
C658        C  0.08187221  0.72034659  0.82704957     0.37100
H659        H  0.07401050  0.79823685  0.81216543     0.17500
O660        O  0.12162115  0.79789100  0.79600026    -0.59400
H661        H  0.11587955  0.69368665  0.81632810     0.17500
O662        O  0.06991854  0.69476578  0.83878866    -0.59500
H663        H  0.07393426  0.69477854  0.85950059     0.44500
H664        H  0.11156437  0.80692147  0.77910305     0.44400
C665        C  0.34645150  0.74681263  0.71043130    -0.04600
C666        C  0.35407592  0.77770885  0.70662417    -0.32000
C667        C  0.38031148  0.78510267  0.70353365     0.37200
C668        C  0.39944486  0.76135677  0.70054654    -0.05000
C669        C  0.39037795  0.73091488  0.69794506    -0.31900
C670        C  0.36453421  0.72325638  0.70439592     0.37100
H671        H  0.34025178  0.79628402  0.71057902     0.17500
O672        O  0.38676924  0.81524205  0.70669491    -0.59400
H673        H  0.40388643  0.71207539  0.69415961     0.17500
O674        O  0.35842931  0.69264840  0.70876480    -0.59500
H675        H  0.36006189  0.68360833  0.68993032     0.44500
H676        H  0.38840550  0.81728763  0.72755940     0.44400
C677        C  0.26123263  0.71316610  0.75353704    -0.04600
C678        C  0.24359873  0.71164709  0.73046234    -0.32000
C679        C  0.21670951  0.70986213  0.73488901     0.37200
C680        C  0.20668714  0.71245470  0.76252739    -0.05000
C681        C  0.22445748  0.71114236  0.78572630    -0.31900
C682        C  0.25141060  0.71007761  0.78144092     0.37100
H683        H  0.25023027  0.71408945  0.70877667     0.17500
O684        O  0.20028261  0.70818412  0.71164386    -0.59400
H685        H  0.21782185  0.71329728  0.80720060     0.17500
O686        O  0.26796600  0.70890665  0.80482142    -0.59500
H687        H  0.27435872  0.68706983  0.80711090     0.44500
H688        H  0.19570342  0.68605406  0.71138903     0.44400
N689        N  0.80936059  0.72058204  0.72392970    -0.02600
C690        C  0.83134454  0.73746915  0.72563322     0.00000
C691        C  0.83323082  0.75082292  0.75144448    -0.22900
C692        C  0.81161777  0.74235484  0.76625627    -0.23100
C693        C  0.79703436  0.72382387  0.74911647    -0.00100
H694        H  0.84840560  0.76587472  0.75839954     0.13600
H695        H  0.80627320  0.75093544  0.78655703     0.13700
N696        N  0.67686369  0.73796588  0.80118176    -0.02600
C697        C  0.65741718  0.76021870  0.79940104     0.00000
C698        C  0.65943280  0.77829191  0.77430564    -0.22900
C699        C  0.68076700  0.76758629  0.76060242    -0.23100
C700        C  0.69118302  0.74262160  0.77714181    -0.00100
H701        H  0.64642034  0.79696017  0.76620621     0.13600
H702        H  0.68822768  0.77775098  0.74092643     0.13700
N703        N  0.53986427  0.80030485  0.83476148    -0.02600
C704        C  0.55396037  0.77326021  0.83992821     0.00000
C705        C  0.53792423  0.74851904  0.83531349    -0.22900
C706        C  0.51403824  0.76068137  0.82643763    -0.23100
C707        C  0.51588802  0.79254585  0.82508039    -0.00100
H708        H  0.54329750  0.72433484  0.83434254     0.13600
H709        H  0.49851698  0.74762906  0.81721265     0.13700
N710        N  0.93593567  0.79768135  0.68740725    -0.02600
C711        C  0.92710196  0.77135666  0.67619998     0.00000
C712        C  0.94784499  0.75022522  0.67491778    -0.22900
C713        C  0.96862664  0.76224869  0.68901379    -0.23100
C714        C  0.96033277  0.79069873  0.69783046    -0.00100
H715        H  0.94707859  0.72661658  0.66855038     0.13600
H716        H  0.98619810  0.74938359  0.69609859     0.13700
N717        N  0.83160436  0.64931331  0.45775204    -0.26400
N718        N  0.83189145  0.61881091  0.46185226    -0.34300
C719        C  0.83343697  0.61092973  0.48977686     0.01900
C720        C  0.83380323  0.63755888  0.50460174     0.07900
C721        C  0.83266500  0.66170847  0.48359878    -0.05200
H722        H  0.83256412  0.58732545  0.49860486     0.08600
H723        H  0.83172715  0.68626654  0.48688833     0.09800
Cu724      Cu  0.82442133  0.58808145  0.43105508     0.44200
Cu725      Cu  0.82790761  0.67005136  0.41613981     0.42000
Cu726      Cu  0.79939344  0.61593341  0.36475226     0.43900
N727        N  0.80738434  0.55935925  0.40299938    -0.33800
N728        N  0.79696658  0.56955370  0.37822153    -0.28100
C729        C  0.78620062  0.54558210  0.36549516    -0.04200
C730        C  0.79011095  0.51915593  0.38340591     0.08000
C731        C  0.80355201  0.52886315  0.40695278     0.01800
H732        H  0.77610187  0.54732694  0.34499979     0.09500
H733        H  0.80965364  0.51497733  0.42591281     0.08600
N734        N  0.81198502  0.66038617  0.35426456    -0.35300
N735        N  0.82344188  0.67926151  0.37170561    -0.27500
C736        C  0.83300524  0.70338249  0.35588982    -0.02700
C737        C  0.82674755  0.69956998  0.32743811     0.05900
C738        C  0.81354838  0.67212413  0.32729487     0.04000
H739        H  0.84460244  0.72146138  0.36434626     0.09100
H740        H  0.80741397  0.66021701  0.30876352     0.07900
N741        N  0.71484148  0.36576977  0.44219311    -0.26400
N742        N  0.73779297  0.37837721  0.44617896    -0.34300
C743        C  0.74244611  0.38076502  0.47403704     0.01900
C744        C  0.72156866  0.36921818  0.48893398     0.07900
C745        C  0.70430153  0.35955699  0.46809295    -0.05200
H746        H  0.75904357  0.39243981  0.48265235     0.08600
H747        H  0.68484499  0.35099909  0.47137228     0.09800
Cu748      Cu  0.75912821  0.40086220  0.41520088     0.44200
Cu749      Cu  0.69955167  0.36268514  0.40047756     0.42000
Cu750      Cu  0.73093600  0.41909359  0.34865650     0.43900
N751        N  0.76944008  0.43955772  0.39103883    -0.33800
N752        N  0.75799996  0.44787098  0.36630103    -0.28100
C753        C  0.76461632  0.47715442  0.35859687    -0.04200
C754        C  0.78082585  0.48758816  0.37986352     0.08000
C755        C  0.78350920  0.46303750  0.39994290     0.01800
H756        H  0.75681270  0.49048376  0.34002626     0.09500
H757        H  0.79318901  0.46303335  0.42061826     0.08600
N758        N  0.70563550  0.38446620  0.33787844    -0.35300
N759        N  0.69409584  0.36446178  0.35576134    -0.27500
C760        C  0.68021222  0.34480496  0.34035172    -0.02700
C761        C  0.68343756  0.35294503  0.31169008     0.05900
C762        C  0.69958868  0.37802890  0.31094384     0.04000
H763        H  0.66952893  0.32542603  0.34932503     0.09100
H764        H  0.70690969  0.39034941  0.29218737     0.07900
N765        N  0.82300272  0.64999163  0.58020377    -0.26400
N766        N  0.82722926  0.61974702  0.58047947    -0.34300
C767        C  0.83305599  0.61165853  0.55426358     0.01900
C768        C  0.83240243  0.63793849  0.53604220     0.07900
C769        C  0.82608895  0.66208156  0.55326447    -0.05200
H770        H  0.83571830  0.58791716  0.54858977     0.08600
H771        H  0.82252063  0.68616161  0.54643278     0.09800
Cu772      Cu  0.81849680  0.58935712  0.61403251     0.44200
Cu773      Cu  0.81088558  0.66978391  0.61759989     0.42000
Cu774      Cu  0.78308156  0.61278421  0.67268987     0.43900
N775        N  0.79674577  0.55917229  0.63864017    -0.33800
N776        N  0.78226749  0.56722526  0.66004452    -0.28100
C777        C  0.76711872  0.54309528  0.66800040    -0.04200
C778        C  0.77233185  0.51913978  0.65024643     0.08000
C779        C  0.79120925  0.53031215  0.63211427     0.01800
H780        H  0.75213036  0.54379951  0.68385411     0.09500
H781        H  0.79909337  0.51908461  0.61406720     0.08600
N782        N  0.79231286  0.65884114  0.67912450    -0.35300
N783        N  0.80227039  0.67875456  0.65992634    -0.27500
C784        C  0.80854698  0.70472872  0.67279698    -0.02700
C785        C  0.80218813  0.70102854  0.70127080     0.05900
C786        C  0.79193242  0.67178644  0.70452956     0.04000
H787        H  0.81803063  0.72422501  0.66235131     0.09100
H788        H  0.78626340  0.65996024  0.72427062     0.07900
N789        N  0.70785789  0.36853503  0.56547298    -0.26400
N790        N  0.72362407  0.39208235  0.56200569    -0.34300
C791        C  0.73011663  0.39566454  0.53462657     0.01900
C792        C  0.71777132  0.37348039  0.51958808     0.07900
C793        C  0.70360749  0.35653922  0.53980908    -0.05200
H794        H  0.74298611  0.41331933  0.52628516     0.08600
H795        H  0.69204297  0.33642083  0.53634893     0.09800
Cu796      Cu  0.73552055  0.41905805  0.59425752     0.44200
Cu797      Cu  0.69684840  0.35466703  0.60680036     0.42000
Cu798      Cu  0.72082993  0.40428701  0.66644131     0.43900
N799        N  0.74380459  0.44966494  0.62490663    -0.33800
N800        N  0.73789004  0.44559173  0.65203800    -0.28100
C801        C  0.74618361  0.47030386  0.66587994    -0.04200
C802        C  0.75807128  0.49039883  0.64620902     0.08000
C803        C  0.75607380  0.47643996  0.62062476     0.01800
H804        H  0.74469803  0.47280031  0.68856118     0.09500
H805        H  0.76330197  0.48495386  0.60024501     0.08600
N806        N  0.70738480  0.35893885  0.67126384    -0.35300
N807        N  0.69800348  0.34236442  0.65059430    -0.27500
C808        C  0.69387497  0.31342577  0.66131596    -0.02700
C809        C  0.70121534  0.31142191  0.68984867     0.05900
C810        C  0.70980179  0.34063457  0.69544838     0.04000
H811        H  0.68847766  0.29442117  0.64858129     0.09100
H812        H  0.71876598  0.34764908  0.71499864     0.07900
N813        N  0.93589624  0.90737172  0.43674134    -0.26400
N814        N  0.93649423  0.93794269  0.43620267    -0.34300
C815        C  0.93086588  0.94762874  0.46203653     0.01900
C816        C  0.92653189  0.92200251  0.48002754     0.07900
C817        C  0.92984703  0.89675121  0.46331933    -0.05200
H818        H  0.93139972  0.97152976  0.46765154     0.08600
H819        H  0.92883365  0.87250557  0.47020597     0.09800
Cu820      Cu  0.95021802  0.96511795  0.40272873     0.44200
Cu821      Cu  0.94543710  0.88287199  0.40094332     0.42000
Cu822      Cu  0.98497182  0.92765861  0.34918947     0.43900
N823        N  0.97730810  0.98714920  0.37766651    -0.33800
N824        N  0.99140353  0.97335746  0.35863636    -0.28100
C825        C  0.01085187  0.99221576  0.35045859    -0.04200
C826        C  0.00867502  0.01895764  0.36523372     0.08000
C827        C  0.98733453  0.01478921  0.38231000     0.01800
H828        H  0.02660898  0.98583052  0.33680504     0.09500
H829        H  0.98105755  0.02948452  0.39887929     0.08600
N830        N  0.97101494  0.88360370  0.34302457    -0.35300
N831        N  0.95616400  0.86765207  0.36105932    -0.27500
C832        C  0.94748364  0.84254605  0.34827410    -0.02700
C833        C  0.95765336  0.84255774  0.32108378     0.05900
C834        C  0.97236529  0.86899664  0.31857240     0.04000
H835        H  0.93356041  0.82667497  0.35749114     0.09100
H836        H  0.98145347  0.87843300  0.29950853     0.07900
N837        N  0.55696910  0.16880478  0.46050031    -0.26400
N838        N  0.55803053  0.13823712  0.46138762    -0.34300
C839        C  0.55885717  0.12707229  0.48853902     0.01900
C840        C  0.55833129  0.15165332  0.50603159     0.07900
C841        C  0.55726160  0.17799997  0.48755420    -0.05200
H842        H  0.55852722  0.10266088  0.49498804     0.08600
H843        H  0.55549044  0.20182104  0.49329858     0.09800
Cu844      Cu  0.55301653  0.11238809  0.42644405     0.44200
Cu845      Cu  0.55271854  0.19377628  0.42120275     0.42000
Cu846      Cu  0.53401944  0.14690695  0.35899875     0.43900
N847        N  0.53499980  0.08812713  0.39561930    -0.33800
N848        N  0.52693080  0.10052532  0.37054651    -0.28100
C849        C  0.51125779  0.08027344  0.35809334    -0.04200
C850        C  0.50946632  0.05416515  0.37651567     0.08000
C851        C  0.52466784  0.06012323  0.40001074     0.01800
H852        H  0.49999837  0.08541022  0.33859250     0.09500
H853        H  0.52608726  0.04639343  0.42000153     0.08600
N854        N  0.54238686  0.19413110  0.35664777    -0.35300
N855        N  0.54880345  0.21057260  0.37863956    -0.27500
C856        C  0.55037856  0.24057176  0.36957444    -0.02700
C857        C  0.54457022  0.24318565  0.34072336     0.05900
C858        C  0.53970684  0.21338228  0.33311205     0.04000
H859        H  0.55353889  0.25936925  0.38337455     0.09100
H860        H  0.53304634  0.20645779  0.31249090     0.07900
N861        N  0.92118517  0.90785153  0.55689249    -0.26400
N862        N  0.91989961  0.93843460  0.55473425    -0.34300
C863        C  0.92047411  0.94802851  0.52703507     0.01900
C864        C  0.92227630  0.92217937  0.51097435     0.07900
C865        C  0.92257350  0.89707008  0.53063181    -0.05200
H866        H  0.92108431  0.97205741  0.51931118     0.08600
H867        H  0.92501488  0.87287388  0.52631653     0.09800
Cu868      Cu  0.92259743  0.96507861  0.59000071     0.44200
Cu869      Cu  0.92428133  0.88334707  0.59596830     0.42000
Cu870      Cu  0.93961970  0.92545620  0.65921582     0.43900
N871        N  0.93653340  0.98710441  0.62515520    -0.33800
N872        N  0.94363479  0.97304082  0.64996498    -0.28100
C873        C  0.95689123  0.99318678  0.66536071    -0.04200
C874        C  0.95803861  0.02118964  0.64953929     0.08000
C875        C  0.94506663  0.01626538  0.62419055     0.01800
H876        H  0.96733695  0.98691683  0.68517745     0.09500
H877        H  0.94451607  0.03163363  0.60516766     0.08600
N878        N  0.93429529  0.87755557  0.65998116    -0.35300
N879        N  0.92851583  0.86292525  0.63676043    -0.27500
C880        C  0.92701992  0.83246904  0.64353937    -0.02700
C881        C  0.93166192  0.82751724  0.67252995     0.05900
C882        C  0.93671629  0.85648811  0.68233003     0.04000
H883        H  0.92370799  0.81508417  0.62828909     0.09100
H884        H  0.94242726  0.86172515  0.70377379     0.07900
N885        N  0.55439448  0.15610251  0.58370543    -0.26400
N886        N  0.54894831  0.12686350  0.58008425    -0.34300
C887        C  0.54984375  0.12142964  0.55239812     0.01900
C888        C  0.55599494  0.14851121  0.53733468     0.07900
C889        C  0.55871490  0.17027752  0.55782758    -0.05200
H890        H  0.54554740  0.09937113  0.54384027     0.08600
H891        H  0.56354868  0.19439113  0.55422352     0.09800
Cu892      Cu  0.53753323  0.09558328  0.61165250     0.44200
Cu893      Cu  0.55546808  0.17257483  0.62484623     0.42000
Cu894      Cu  0.52866454  0.11677985  0.68142284     0.43900
N895        N  0.51791773  0.06824070  0.64083250    -0.33800
N896        N  0.51399490  0.07558501  0.66728922    -0.28100
C897        C  0.49777507  0.05478902  0.67962482    -0.04200
C898        C  0.49111103  0.03383514  0.65953410     0.08000
C899        C  0.50422396  0.04320058  0.63531391     0.01800
H900        H  0.48987529  0.05623575  0.70068698     0.09500
H901        H  0.50269534  0.03361157  0.61459676     0.08600
N902        N  0.54636449  0.15884559  0.68853065    -0.35300
N903        N  0.55630194  0.17835286  0.66897085    -0.27500
C904        C  0.56765222  0.20166062  0.68223149    -0.02700
C905        C  0.56438013  0.19661369  0.71129041     0.05900
C906        C  0.55085582  0.16942301  0.71449364     0.04000
H907        H  0.57764612  0.22058224  0.67147843     0.09100
H908        H  0.54547895  0.15755121  0.73432616     0.07900
N909        N  0.78336884  0.29153998  0.84592287    -0.02600
C910        C  0.79061475  0.26337521  0.85846770     0.00000
C911        C  0.76858320  0.24517111  0.86005264    -0.22900
C912        C  0.74904884  0.26087045  0.84438969    -0.23100
C913        C  0.75926866  0.28852092  0.83420265    -0.00100
H914        H  0.76757321  0.22103943  0.86718093     0.13600
H915        H  0.73129290  0.25058638  0.83689540     0.13700
N916        N  0.70606356  0.28285704  0.70677725    -0.02600
C917        C  0.69593287  0.25500081  0.70081615     0.00000
C918        C  0.71295477  0.23150566  0.71157809    -0.22900
C919        C  0.73309327  0.24526318  0.72525789    -0.23100
C920        C  0.72795303  0.27680353  0.72310708    -0.00100
H921        H  0.70967255  0.20693097  0.71348378     0.13600
H922        H  0.74743035  0.23318518  0.73936264     0.13700
N923        N  0.89670850  0.20668188  0.79483778    -0.02600
C924        C  0.87090015  0.21365123  0.79616013     0.00000
C925        C  0.86089283  0.22224595  0.76931959    -0.22900
C926        C  0.88133808  0.22112942  0.75095269    -0.23100
C927        C  0.90342024  0.21181902  0.76710535    -0.00100
H928        H  0.84151605  0.23179899  0.76418624     0.13600
H929        H  0.88046061  0.23002264  0.72898699     0.13700
N930        N  0.57463656  0.21398200  0.73416280    -0.02600
C931        C  0.59790385  0.22836613  0.73548648     0.00000
C932        C  0.60274581  0.23780906  0.76259602    -0.22900
C933        C  0.58163131  0.22997299  0.77838277    -0.23100
C934        C  0.56433301  0.21571134  0.76057916    -0.00100
H935        H  0.61934574  0.25061402  0.76970385     0.13600
H936        H  0.57825574  0.23701324  0.79974102     0.13700
N937        N  0.68839135  0.66215214  0.07601419    -0.26400
N938        N  0.68929061  0.63162971  0.07587615    -0.34300
C939        C  0.68717481  0.62311640  0.04902830     0.01900
C940        C  0.68500936  0.64942460  0.03089250     0.07900
C941        C  0.68561957  0.67398936  0.04876130    -0.05200
H942        H  0.68909346  0.59938393  0.04308501     0.08600
H943        H  0.68601309  0.69840710  0.04233771     0.09800
Cu944      Cu  0.69997083  0.60256414  0.11067951     0.44200
Cu945      Cu  0.69505791  0.68335940  0.11432903     0.42000
Cu946      Cu  0.72177217  0.63068824  0.17604966     0.43900
N947        N  0.72088528  0.57521492  0.14094468    -0.33800
N948        N  0.72969694  0.58500435  0.16536620    -0.28100
C949        C  0.74621889  0.56299366  0.17766290    -0.04200
C950        C  0.74780528  0.53845767  0.15983005     0.08000
C951        C  0.73158182  0.54727554  0.13682258     0.01800
H952        H  0.75809477  0.56592389  0.19657542     0.09500
H953        H  0.72945948  0.53539875  0.11729087     0.08600
N954        N  0.71236946  0.67812998  0.17759668    -0.35300
N955        N  0.70314227  0.69644094  0.15581564    -0.27500
C956        C  0.70043311  0.72553510  0.16431605    -0.02700
C957        C  0.70836563  0.72563857  0.19257855     0.05900
C958        C  0.71571231  0.69528109  0.20045801     0.04000
H959        H  0.69390345  0.74533323  0.15066314     0.09100
H960        H  0.72338832  0.68636458  0.22099967     0.07900
N961        N  0.83351266  0.39925023  0.08407673    -0.26400
N962        N  0.82950430  0.42948750  0.08030489    -0.34300
C963        C  0.83123869  0.43795669  0.05251152     0.01900
C964        C  0.83623746  0.41170481  0.03787204     0.07900
C965        C  0.83759632  0.38747758  0.05855090    -0.05200
H966        H  0.82703955  0.46114803  0.04342429     0.08600
H967        H  0.83997009  0.36304044  0.05515447     0.09800
Cu968      Cu  0.81600641  0.45645209  0.11193812     0.44200
Cu969      Cu  0.82957219  0.37662008  0.12383673     0.42000
Cu970      Cu  0.80062734  0.42250410  0.18097827     0.43900
N971        N  0.79486321  0.47951135  0.14141759    -0.33800
N972        N  0.78887108  0.46789245  0.16702516    -0.28100
C973        C  0.77243591  0.48820416  0.17895218    -0.04200
C974        C  0.76793326  0.51346719  0.15964297     0.08000
C975        C  0.78235591  0.50689427  0.13618824     0.01800
H976        H  0.76291223  0.48383132  0.19906710     0.09500
H977        H  0.78254593  0.52026388  0.11600953     0.08600
N978        N  0.81143081  0.37516693  0.18528220    -0.35300
N979        N  0.82143167  0.35915322  0.16468593    -0.27500
C980        C  0.82276187  0.32890889  0.17318653    -0.02700
C981        C  0.81309607  0.32551610  0.20034083     0.05900
C982        C  0.80635553  0.35530026  0.20756569     0.04000
H983        H  0.82840122  0.31058006  0.15966998     0.09100
H984        H  0.79690465  0.36191908  0.22672752     0.07900
N985        N  0.68849474  0.66125224  0.95281129    -0.26400
N986        N  0.69578193  0.63188834  0.95746404    -0.34300
C987        C  0.69503880  0.62387353  0.98530443     0.01900
C988        C  0.68705572  0.64933977  0.99953036     0.07900
C989        C  0.68308252  0.67294080  0.97826276    -0.05200
H990        H  0.70070391  0.60114615  0.99452945     0.08600
H991        H  0.67683599  0.69662573  0.98108817     0.09800
Cu992      Cu  0.70853670  0.60361652  0.92687933     0.44200
Cu993      Cu  0.68710631  0.68061261  0.91072976     0.42000
Cu994      Cu  0.70806606  0.62467597  0.85442542     0.43900
N995        N  0.72511063  0.57578040  0.89805597    -0.33800
N996        N  0.72497867  0.58262926  0.87034724    -0.28100
C997        C  0.73900553  0.56050236  0.85777950    -0.04200
C998        C  0.74846515  0.53919946  0.87900972     0.08000
C999        C  0.73930384  0.54976739  0.90412641     0.01800
H1000       H  0.74333066  0.56093218  0.83533239     0.09500
H1001       H  0.74343959  0.53986920  0.92546263     0.08600
N1002       N  0.69303726  0.66987724  0.84683275    -0.35300
N1003       N  0.68654427  0.68975162  0.86622534    -0.27500
C1004       C  0.67937459  0.71710361  0.85269269    -0.02700
C1005       C  0.68129417  0.71413770  0.82365622     0.05900
C1006       C  0.68985077  0.68400122  0.82066810     0.04000
H1007       H  0.67357405  0.73767763  0.86324830     0.09100
H1008       H  0.69405691  0.67327091  0.80098938     0.07900
N1009       N  0.82603245  0.39467504  0.96357959    -0.26400
N1010       N  0.82889131  0.42498355  0.96124178    -0.34300
C1011       C  0.83464360  0.43517756  0.98700790     0.01900
C1012       C  0.83547864  0.41010015  0.00665622     0.07900
C1013       C  0.83009672  0.38466521  0.99104954    -0.05200
H1014       H  0.83604573  0.45937441  0.99142272     0.08600
H1015       H  0.82730071  0.36113694  0.99934561     0.09800
Cu1016     Cu  0.81843657  0.45198979  0.92497051     0.44200
Cu1017     Cu  0.81268468  0.37045330  0.92947842     0.42000
Cu1018     Cu  0.78350785  0.41728840  0.86814955     0.43900
N1019       N  0.79527711  0.47694167  0.89490849    -0.33800
N1020       N  0.78152323  0.46467176  0.87448424    -0.28100
C1021       C  0.76430920  0.48635556  0.86310114    -0.04200
C1022       C  0.76742234  0.51333841  0.87727697     0.08000
C1023       C  0.78716321  0.50636583  0.89722283     0.01800
H1024       H  0.74882588  0.48178893  0.84801723     0.09500
H1025       H  0.79320167  0.52057352  0.91428141     0.08600
N1026       N  0.78905435  0.36920741  0.86958430    -0.35300
N1027       N  0.79947549  0.35265728  0.89177470    -0.27500
C1028       C  0.79983638  0.32252980  0.88615156    -0.02700
C1029       C  0.78940104  0.31995928  0.85902702     0.05900
C1030       C  0.78248078  0.34990857  0.84919375     0.04000
H1031       H  0.80666961  0.30385779  0.90096718     0.09100
H1032       H  0.77292871  0.35708741  0.82907107     0.07900
N1033       N  0.83695995  0.71584725  0.30255250    -0.02600
C1034       C  0.86258763  0.72288311  0.30056708     0.00000
C1035       C  0.87031061  0.72107036  0.27270397    -0.22900
C1036       C  0.84861588  0.71467130  0.25683701    -0.23100
C1037       C  0.82797327  0.71231984  0.27539697    -0.00100
H1038       H  0.88868700  0.72862787  0.26404101     0.13600
H1039       H  0.84773967  0.71573781  0.23380304     0.13700
N1040       N  0.71061894  0.75269781  0.20899240    -0.02600
C1041       C  0.69420375  0.77820205  0.20722773     0.00000
C1042       C  0.70517757  0.80155245  0.22224690    -0.22900
C1043       C  0.72831743  0.79017754  0.23387063    -0.23100
C1044       C  0.73116168  0.76003225  0.22605168    -0.00100
H1045       H  0.69626820  0.82346919  0.22716025     0.13600
H1046       H  0.74096255  0.80203359  0.24818573     0.13700
N1047       N  0.94872619  0.82507278  0.29756623    -0.02600
C1048       C  0.92359717  0.81608108  0.29434418     0.00000
C1049       C  0.91733887  0.81435456  0.26578819    -0.22900
C1050       C  0.93936527  0.82092770  0.25100465    -0.23100
C1051       C  0.95879999  0.82684872  0.27080448    -0.00100
H1052       H  0.89976355  0.80490198  0.25690006     0.13600
H1053       H  0.94144622  0.81785083  0.22849365     0.13700
N1054       N  0.56857383  0.80815497  0.22765689    -0.02600
C1055       C  0.58687641  0.78459620  0.22841958     0.00000
C1056       C  0.58193813  0.76356418  0.25091332    -0.22900
C1057       C  0.56012107  0.77409231  0.26397588    -0.23100
C1058       C  0.55219042  0.80159298  0.24955745    -0.00100
H1059       H  0.59360536  0.74335487  0.25818948     0.13600
H1060       H  0.55104608  0.76279422  0.28225372     0.13700
N1061       N  0.67399199  0.33753519  0.28721352    -0.02600
C1062       C  0.64968811  0.32641176  0.28290792     0.00000
C1063       C  0.64618735  0.31949863  0.25478085    -0.22900
C1064       C  0.66909682  0.32561761  0.24144338    -0.23100
C1065       C  0.68623651  0.33604582  0.26175434    -0.00100
H1066       H  0.62926647  0.30910420  0.24540537     0.13600
H1067       H  0.67348707  0.31999381  0.21989094     0.13700
N1068       N  0.80613305  0.29656188  0.21471283    -0.02600
C1069       C  0.81778189  0.26818382  0.21189989     0.00000
C1070       C  0.80413019  0.24541992  0.22666111    -0.22900
C1071       C  0.78362167  0.25984058  0.23900123    -0.23100
C1072       C  0.78509709  0.29110396  0.23147262    -0.00100
H1073       H  0.80919766  0.22094512  0.22917273     0.13600
H1074       H  0.76900199  0.24866146  0.25205054     0.13700
N1075       N  0.53791014  0.27172249  0.32459704    -0.02600
C1076       C  0.55134239  0.29857054  0.32478644     0.00000
C1077       C  0.53525879  0.32302165  0.31416374    -0.22900
C1078       C  0.51192467  0.31080264  0.30634137    -0.23100
C1079       C  0.51407621  0.27926065  0.31259882    -0.00100
H1080       H  0.54076371  0.34673165  0.30934948     0.13600
H1081       H  0.49591482  0.32322680  0.29501829     0.13700
N1082       N  0.93551059  0.20505092  0.21919691    -0.02600
C1083       C  0.90901155  0.20467491  0.21935502     0.00000
C1084       C  0.90066525  0.19478319  0.24600215    -0.22900
C1085       C  0.92233055  0.19126584  0.26337488    -0.23100
C1086       C  0.94363969  0.19872115  0.24679854    -0.00100
H1087       H  0.88071495  0.19527378  0.25320657     0.13600
H1088       H  0.92167910  0.18775273  0.28628616     0.13700
N1089       N  0.57804260  0.89339445  0.08361206    -0.26400
N1090       N  0.58380621  0.92295746  0.08049558    -0.34300
C1091       C  0.58815225  0.93040250  0.05297756     0.01900
C1092       C  0.58482833  0.90431499  0.03776519     0.07900
C1093       C  0.57849012  0.88108158  0.05787814    -0.05200
H1094       H  0.59180093  0.95365047  0.04449569     0.08600
H1095       H  0.57346953  0.85750695  0.05396771     0.09800
Cu1096     Cu  0.58002796  0.95330429  0.11244348     0.44200
Cu1097     Cu  0.56863331  0.87406511  0.12335487     0.42000
Cu1098     Cu  0.55593229  0.92928609  0.18063601     0.43900
N1099       N  0.56468841  0.98374950  0.14022642    -0.33800
N1100       N  0.55471251  0.97554991  0.16515167    -0.28100
C1101       C  0.54351820  0.00088359  0.17588092    -0.04200
C1102       C  0.54669655  0.02599158  0.15654396     0.08000
C1103       C  0.56022909  0.01412108  0.13435050     0.01800
H1104       H  0.53310951  0.00081345  0.19567798     0.09500
H1105       H  0.56547398  0.02631856  0.11463279     0.08600
N1106       N  0.56122756  0.88127251  0.18701171    -0.35300
N1107       N  0.56543063  0.86200843  0.16649272    -0.27500
C1108       C  0.56870548  0.83301008  0.17810111    -0.02700
C1109       C  0.56649110  0.83408816  0.20716706     0.05900
C1110       C  0.56168830  0.86484633  0.21229822     0.04000
H1111       H  0.57261366  0.81274881  0.16625190     0.09100
H1112       H  0.55899241  0.87458644  0.23275181     0.07900
N1113       N  0.95864245  0.17890482  0.15226094    -0.26400
N1114       N  0.97014107  0.15823912  0.17077586    -0.34300
C1115       C  0.96498343  0.16610428  0.19737729     0.01900
C1116       C  0.94941128  0.19274477  0.19575807     0.07900
C1117       C  0.94545514  0.20009212  0.16687751    -0.05200
H1118       H  0.97089031  0.15237001  0.21649871     0.08600
H1119       H  0.93330688  0.21881088  0.15721505     0.09800
Cu1120     Cu  0.99108421  0.11793583  0.16149310     0.44200
Cu1121     Cu  0.96069062  0.17787754  0.10763565     0.42000
Cu1122     Cu  0.51549021  0.14416347  0.11520055     0.43900
N1123       N  0.51354768  0.10045789  0.16671210    -0.33800
N1124       N  0.52455670  0.10584867  0.14185428    -0.28100
C1125       C  0.53848668  0.08073260  0.13527161    -0.04200
C1126       C  0.53624880  0.05808642  0.15700584     0.08000
C1127       C  0.52028494  0.07137131  0.17676900     0.01800
H1128       H  0.54829005  0.07860007  0.11529045     0.09500
H1129       H  0.51323436  0.06033491  0.19627795     0.08600
N1130       N  0.99306549  0.15205169  0.06222385    -0.35300
N1131       N  0.97207468  0.16955403  0.06601336    -0.27500
C1132       C  0.96041641  0.17659780  0.04017520    -0.02700
C1133       C  0.97492976  0.16240087  0.01956688     0.05900
C1134       C  0.99545063  0.14746623  0.03455447     0.04000
H1135       H  0.94191604  0.18903406  0.03690517     0.09100
H1136       H  0.51305493  0.15077003  0.04745203     0.07900
N1137       N  0.53381434  0.97013876  0.87910985    -0.26400
N1138       N  0.54890828  0.97900233  0.90016069    -0.34300
C1139       C  0.54240739  0.00812885  0.90594118     0.01900
C1140       C  0.52239131  0.01871203  0.88760951     0.07900
C1141       C  0.51741069  0.99410482  0.87063412    -0.05200
H1142       H  0.55039072  0.01993590  0.92372423     0.08600
H1143       H  0.50165303  0.99283498  0.85509007     0.09800
Cu1144     Cu  0.57281688  0.95025544  0.92615084     0.44200
Cu1145     Cu  0.53437071  0.92379392  0.86743126     0.42000
Cu1146     Cu  0.56421426  0.87098748  0.92528230     0.43900
N1147       N  0.58110679  0.92103827  0.96136752    -0.33800
N1148       N  0.57625174  0.89119166  0.96216036    -0.28100
C1149       C  0.57810901  0.87969729  0.98946402    -0.04200
C1150       C  0.58442755  0.90377932  0.00645257     0.08000
C1151       C  0.58627389  0.92950571  0.98781931     0.01800
H1152       H  0.57367945  0.85618183  0.99653864     0.09500
H1153       H  0.58897124  0.95320884  0.99325529     0.08600
N1154       N  0.55278861  0.85780697  0.88516900    -0.35300
N1155       N  0.54121608  0.87578043  0.86455353    -0.27500
C1156       C  0.53527615  0.85809706  0.84257925    -0.02700
C1157       C  0.54419574  0.82801618  0.84971519     0.05900
C1158       C  0.55499272  0.82872227  0.87677974     0.04000
H1159       H  0.52509873  0.86644788  0.82314570     0.09100
H1160       H  0.56293941  0.80924247  0.88993757     0.07900
N1161       N  0.95431680  0.16000973  0.94409691    -0.26400
N1162       N  0.97100040  0.13629762  0.94773316    -0.34300
C1163       C  0.98012659  0.13415469  0.97458212     0.01900
C1164       C  0.96882654  0.15754110  0.98924795     0.07900
C1165       C  0.95229761  0.17365800  0.96928842    -0.05200
H1166       H  0.48589431  0.12637615  0.00892187     0.08600
H1167       H  0.94020244  0.19391576  0.97267366     0.09800
Cu1168     Cu  0.98120044  0.10627290  0.91738552     0.44200
Cu1169     Cu  0.93749219  0.17040836  0.90341692     0.42000
Cu1170     Cu  0.95856824  0.11333225  0.84792928     0.43900
N1171       N  0.48987456  0.08774351  0.91143783    -0.33800
N1172       N  0.98029462  0.07420447  0.86286999    -0.28100
C1173       C  0.49621116  0.06862357  0.87035704    -0.04200
C1174       C  0.50672196  0.04730205  0.89098148     0.08000
C1175       C  0.50237589  0.06035557  0.91664452     0.01800
H1176       H  0.49700015  0.06724128  0.84748578     0.09500
H1177       H  0.50842932  0.05094688  0.93764731     0.08600
N1178       N  0.93672181  0.15443275  0.84034789    -0.35300
N1179       N  0.92822614  0.17359747  0.85947503    -0.27500
C1180       C  0.91290532  0.19591058  0.84596270    -0.02700
C1181       C  0.91229219  0.19071996  0.81718661     0.05900
C1182       C  0.92749852  0.16442953  0.81436072     0.04000
H1183       H  0.90306936  0.21441406  0.85637094     0.09100
H1184       H  0.93074179  0.15263398  0.79501389     0.07900
C1185       C  0.49570308  0.25749288  0.30019785    -0.04600
C1186       C  0.49032128  0.26097951  0.27080565    -0.32000
C1187       C  0.98542314  0.22986896  0.24477786     0.37200
C1188       C  0.96891314  0.20900276  0.25962253    -0.05000
C1189       C  0.97395429  0.20273353  0.28911351    -0.31900
C1190       C  0.99186819  0.21999772  0.30421769     0.37100
H1191       H  0.50100039  0.27756617  0.25767481     0.17500
O1192       O  0.46327794  0.25344807  0.23038905    -0.59400
H1193       H  0.96248705  0.18622557  0.30127359     0.17500
O1194       O  0.99219219  0.21782798  0.33349133    -0.59500
H1195       H  0.99604478  0.19572663  0.33918158     0.44500
H1196       H  0.45048216  0.27097689  0.23095833     0.44400
C1197       C  0.89171865  0.22711852  0.20260442    -0.04600
C1198       C  0.89039676  0.25756508  0.21168229    -0.32000
C1199       C  0.86650212  0.27430413  0.21097800     0.37200
C1200       C  0.84385148  0.26085396  0.20015062    -0.05000
C1201       C  0.84660288  0.23313997  0.18601134    -0.31900
C1202       C  0.87021298  0.21597173  0.18768895     0.37100
H1203       H  0.90674057  0.26632380  0.22355714     0.17500
O1204       O  0.86470352  0.30092937  0.22538226    -0.59400
H1205       H  0.82946583  0.22258469  0.17721725     0.17500
O1206       O  0.87106707  0.18660374  0.17806858    -0.59500
H1207       H  0.86394206  0.17308086  0.19368143     0.44500
H1208       H  0.87193370  0.31729052  0.21237518     0.44400
C1209       C  0.63033081  0.31698108  0.30452706    -0.04600
C1210       C  0.62171205  0.28642502  0.30430671    -0.32000
C1211       C  0.59674474  0.27874209  0.31333384     0.37200
C1212       C  0.58044479  0.30137751  0.32501100    -0.05000
C1213       C  0.59107754  0.33062486  0.32954300    -0.31900
C1214       C  0.61547224  0.33883609  0.31860213     0.37100
H1215       H  0.63299593  0.26933035  0.29344711     0.17500
O1216       O  0.58762743  0.25034572  0.30702680    -0.59400
H1217       H  0.57919105  0.34843754  0.33865125     0.17500
O1218       O  0.62280654  0.36916208  0.31828048    -0.59500
H1219       H  0.62761264  0.37285211  0.33831305     0.44500
H1220       H  0.58018059  0.25322562  0.28738369     0.44400
C1221       C  0.71504104  0.33527777  0.25701005    -0.04600
C1222       C  0.72381595  0.34150118  0.22904073    -0.32000
C1223       C  0.74797346  0.32966677  0.22035289     0.37200
C1224       C  0.76470365  0.31332609  0.24035171    -0.05000
C1225       C  0.75755134  0.31105650  0.26905357    -0.31900
C1226       C  0.73272203  0.32070029  0.27730834     0.37100
H1227       H  0.71064398  0.35246895  0.21295117     0.17500
O1228       O  0.75325441  0.33026207  0.19181527    -0.59400
H1229       H  0.77006483  0.29812504  0.28463036     0.17500
O1230       O  0.72512389  0.31204697  0.30432667    -0.59500
H1231       H  0.71726745  0.29142870  0.30286088     0.44500
H1232       H  0.75427162  0.35248915  0.18553540     0.44400
C1233       C  0.98719277  0.82515734  0.26328432    -0.04600
C1234       C  0.48398462  0.83889982  0.24753816    -0.32000
C1235       C  0.50858208  0.82973429  0.23795285     0.37200
C1236       C  0.52831029  0.81916174  0.25775603    -0.05000
C1237       C  0.52290984  0.81943371  0.28693464    -0.31900
C1238       C  0.00672704  0.81261060  0.28255378     0.37100
H1239       H  0.97969312  0.83998066  0.21889214     0.17500
O1240       O  0.51195151  0.82839896  0.20920362    -0.59400
H1241       H  0.53777445  0.81162932  0.30265236     0.17500
O1242       O  0.00159278  0.80581822  0.31067978    -0.59500
H1243       H  0.99641447  0.78381911  0.31177260     0.44500
H1244       H  0.50752100  0.80695204  0.20477491     0.44400
C1245       C  0.66551663  0.77885974  0.20006391    -0.04600
C1246       C  0.65091540  0.75191464  0.20402316    -0.32000
C1247       C  0.62399224  0.75382175  0.20844533     0.37200
C1248       C  0.61155388  0.78289731  0.21189235    -0.05000
C1249       C  0.62539052  0.80968071  0.20421602    -0.31900
C1250       C  0.65163115  0.80759014  0.19653802     0.37100
H1251       H  0.66029725  0.72926248  0.20623634     0.17500
O1252       O  0.61056750  0.72685190  0.21204168    -0.59400
H1253       H  0.61684087  0.83251375  0.20610776     0.17500
O1254       O  0.66413947  0.83431727  0.18852294    -0.59500
H1255       H  0.66629757  0.83358419  0.16765889     0.44500
H1256       H  0.60147769  0.72447376  0.19348397     0.44400
C1257       C  0.87583535  0.74555121  0.31802963    -0.04600
C1258       C  0.90270816  0.74097668  0.32378059    -0.32000
C1259       C  0.91946841  0.76622673  0.32240932     0.37200
C1260       C  0.90915270  0.79622235  0.31506963    -0.05000
C1261       C  0.88198068  0.80117410  0.31587266    -0.31900
C1262       C  0.86522555  0.77599192  0.31740503     0.37100
H1263       H  0.91116111  0.71771117  0.32470610     0.17500
O1264       O  0.94598033  0.76069776  0.32322017    -0.59400
H1265       H  0.87370150  0.82411264  0.31043736     0.17500
O1266       O  0.83902488  0.78143917  0.31215623    -0.59500
H1267       H  0.83091639  0.77940056  0.33111028     0.44500
H1268       H  0.95043568  0.75476815  0.30378594     0.44400
C1269       C  0.79997361  0.71619019  0.26512279    -0.04600
C1270       C  0.79364368  0.71119334  0.23630973    -0.32000
C1271       C  0.77065300  0.72384566  0.22305539     0.37200
C1272       C  0.75215457  0.73920530  0.23919714    -0.05000
C1273       C  0.75685803  0.74060869  0.26862302    -0.31900
C1274       C  0.78062939  0.73033916  0.28144367     0.37100
H1275       H  0.80754161  0.69979947  0.22312994     0.17500
O1276       O  0.76768382  0.72332692  0.19403065    -0.59400
H1277       H  0.74293955  0.75263490  0.28141088     0.17500
O1278       O  0.78563581  0.73796443  0.30887624    -0.59500
H1279       H  0.77412948  0.72475602  0.32090942     0.44500
H1280       H  0.77473083  0.74320020  0.18631823     0.44400
C1281       C  0.93045969  0.21788102  0.75719389    -0.04600
C1282       C  0.94884679  0.22927990  0.77628645    -0.32000
C1283       C  0.52884457  0.21049937  0.79629473     0.37200
C1284       C  0.53618580  0.21436350  0.76752251    -0.05000
C1285       C  0.96006281  0.23086501  0.71832586    -0.31900
C1286       C  0.93682349  0.21759214  0.72802385     0.37100
H1287       H  0.50205813  0.22468054  0.82763126     0.17500
O1288       O  0.54570605  0.19671965  0.81652118    -0.59400
H1289       H  0.96374481  0.23248425  0.69568604     0.17500
O1290       O  0.92033000  0.20474053  0.70882128    -0.59500
H1291       H  0.91443749  0.22201379  0.69517632     0.44500
H1292       H  0.54317921  0.17413526  0.81539431     0.44400
C1293       C  0.61592847  0.23628442  0.71224632    -0.04600
C1294       C  0.63191259  0.21311372  0.70170629    -0.32000
C1295       C  0.65736710  0.21993747  0.69290603     0.37200
C1296       C  0.66725152  0.24997552  0.69615559    -0.05000
C1297       C  0.64927369  0.27384936  0.70184990    -0.31900
C1298       C  0.62363162  0.26726479  0.70897100     0.37100
H1299       H  0.62581546  0.18925356  0.70310049     0.17500
O1300       O  0.67279596  0.19689079  0.68257343    -0.59400
H1301       H  0.65537739  0.29730803  0.70408603     0.17500
O1302       O  0.60769276  0.29075114  0.71760476    -0.59500
H1303       H  0.59465278  0.29476664  0.70185054     0.44500
H1304       H  0.67343251  0.17964551  0.69748196     0.44400
C1305       C  0.81726334  0.24912021  0.85365093    -0.04600
C1306       C  0.82020383  0.21655711  0.85221358    -0.32000
C1307       C  0.83970487  0.20365148  0.83569768     0.37200
C1308       C  0.85746311  0.22303083  0.82175378    -0.05000
C1309       C  0.85775718  0.25433982  0.82753196    -0.31900
C1310       C  0.83810714  0.26744826  0.84349446     0.37100
H1311       H  0.80602836  0.20096589  0.86124965     0.17500
O1312       O  0.84001591  0.17249329  0.83157456    -0.59400
H1313       H  0.87187310  0.26936720  0.81731247     0.17500
O1314       O  0.83846634  0.29870634  0.84645730    -0.59500
H1315       H  0.85011257  0.30132116  0.86322745     0.44500
H1316       H  0.82761828  0.17002395  0.81542712     0.44400
C1317       C  0.75251576  0.29993489  0.80444555    -0.04600
C1318       C  0.72610631  0.30465275  0.79639299    -0.32000
C1319       C  0.71787327  0.30240560  0.76795662     0.37200
C1320       C  0.73623555  0.29525152  0.74719608    -0.05000
C1321       C  0.76292424  0.29544756  0.75447680    -0.31900
C1322       C  0.77119398  0.29765908  0.78287964     0.37100
H1323       H  0.71152596  0.30665226  0.81261276     0.17500
O1324       O  0.69159864  0.30320505  0.76147361    -0.59400
H1325       H  0.77726608  0.28992644  0.73878482     0.17500
O1326       O  0.79730287  0.29361224  0.78963459    -0.59500
H1327       H  0.80068903  0.27090120  0.79034780     0.44500
H1328       H  0.68569777  0.28181603  0.76578807     0.44400
C1329       C  0.50088689  0.81009146  0.80192439    -0.04600
C1330       C  0.96488190  0.79560520  0.77688237    -0.32000
C1331       C  0.95381113  0.79980042  0.74935204     0.37200
C1332       C  0.97015370  0.80112625  0.72549151    -0.05000
C1333       C  0.49867895  0.81184848  0.75010497    -0.31900
C1334       C  0.51303931  0.81516746  0.77542973     0.37100
H1335       H  0.95225921  0.79059261  0.79470023     0.17500
O1336       O  0.92717898  0.79862115  0.74590979    -0.59400
H1337       H  0.50894724  0.81091796  0.73023572     0.17500
O1338       O  0.53968176  0.81716970  0.77415674    -0.59500
H1339       H  0.54331588  0.83922480  0.77694248     0.44500
H1340       H  0.92326327  0.77623861  0.74588394     0.44400
C1341       C  0.58332201  0.77066094  0.83921393    -0.04600
C1342       C  0.59779719  0.79673163  0.83077890    -0.32000
C1343       C  0.62348088  0.79360680  0.82149055     0.37200
C1344       C  0.63479266  0.76388428  0.81860304    -0.05000
C1345       C  0.62159296  0.73808370  0.82996058    -0.31900
C1346       C  0.59679206  0.74152277  0.84167965     0.37100
H1347       H  0.58903495  0.81971100  0.82936635     0.17500
O1348       O  0.63716627  0.81979254  0.81429817    -0.59400
H1349       H  0.62964328  0.71490926  0.82844074     0.17500
O1350       O  0.58557104  0.71579278  0.85409343    -0.59500
H1351       H  0.58804949  0.71764622  0.87490182     0.44500
H1352       H  0.62703336  0.83101973  0.79853135     0.44400
C1353       C  0.85140744  0.74235465  0.70394876    -0.04600
C1354       C  0.85415464  0.77233032  0.69174734    -0.32000
C1355       C  0.87787132  0.78167259  0.68010745     0.37200
C1356       C  0.89955909  0.76069963  0.68043317    -0.05000
C1357       C  0.89539081  0.72950830  0.68989195    -0.31900
C1358       C  0.87165934  0.72041587  0.70162402     0.37100
H1359       H  0.83847368  0.78939360  0.69334479     0.17500
O1360       O  0.87954279  0.81160212  0.66927397    -0.59400
H1361       H  0.91110891  0.71234593  0.69077547     0.17500
O1362       O  0.86959265  0.69100141  0.71380717    -0.59500
H1363       H  0.86217129  0.67873971  0.69853293     0.44500
H1364       H  0.87862302  0.82462902  0.68593904     0.44400
C1365       C  0.76933573  0.71683436  0.75566710    -0.04600
C1366       C  0.74983942  0.72094305  0.73429981    -0.32000
C1367       C  0.72360103  0.72503997  0.74136454     0.37200
C1368       C  0.71659258  0.72740208  0.77016947    -0.05000
C1369       C  0.73576361  0.72038419  0.79147069    -0.31900
C1370       C  0.76157760  0.71354664  0.78436373     0.37100
H1371       H  0.75491232  0.72351713  0.71208574     0.17500
O1372       O  0.70528889  0.72940419  0.71969646    -0.59400
H1373       H  0.73142076  0.72226380  0.81371867     0.17500
O1374       O  0.77958483  0.70656736  0.80592883    -0.59500
H1375       H  0.78259734  0.68382332  0.80590842     0.44500
H1376       H  0.69541185  0.70995753  0.71999667     0.44400
loop_ 
_geom_bond_atom_site_label_1 
_geom_bond_atom_site_label_2 
_geom_bond_distance 
_geom_bond_site_symmetry_2 
_ccdc_geom_bond_type 
N1            C5   1.368       .  A
N1            C2   1.365       .  A
N1           C97   1.444       .  S
C2            C3   1.383       .  A
C2          C665   1.489       .  S
C3            C4   1.362       .  A
C3            H6   1.083       .  S
C4            C5   1.383       .  A
C4            H7   1.082       .  S
C5          C677   1.493       .  S
N8           C12   1.367       .  A
N8            C9   1.361       .  A
N8          C317   1.441       .  S
C9           C10   1.382       .  A
C9          C656   1.487       .  S
C10          C11   1.365       .  A
C10          H13   1.082       .  S
C11          C12   1.385       .  A
C11          H14   1.081       .  S
C12         C680   1.496       .  S
N15          C19   1.353       .  A
N15          C16   1.362       .  A
N15         C469   1.441       .  S
C16          C17   1.387       .  A
C16         C653   1.503       .  S
C17          C18   1.373       .  A
C17          H20   1.080       .  S
C18          C19   1.382       .  A
C18          H21   1.083   1_455  S
C19         C641   1.480   1_455  S
N22          C26   1.355       .  A
N22          C23   1.366       .  A
N22         C193   1.440       .  S
C23          C24   1.392       .  A
C23         C668   1.512       .  S
C24          C25   1.368       .  A
C24          H27   1.080       .  S
C25          C26   1.376       .  A
C25          H28   1.083       .  S
C26         C644   1.478       .  S
N29          C33   1.354       .  A
N29          N30   1.321       .  A
N29         Cu37   2.095       .  S
N30          C31   1.339       .  A
N30         Cu36   2.062       .  S
C31          C32   1.382       .  A
C31          H34   1.082       .  S
C32          C33   1.391       .  A
C32          C80   1.479       .  S
C33          H35   1.082       .  S
Cu36         N39   2.061       .  S
Cu37         N47   2.098       .  S
Cu38         N40   2.080       .  S
Cu38         N46   2.081       .  S
N39          C43   1.341       .  A
N39          N40   1.320       .  A
N40          C41   1.349       .  A
C41          C42   1.387       .  A
C41          H44   1.082       .  S
C42          C43   1.381       .  A
C42          C66   1.472       .  S
C43          H45   1.082       .  S
N46          C50   1.344       .  A
N46          N47   1.326       .  A
N47          C48   1.350       .  A
C48          C49   1.389       .  A
C48          H51   1.081       .  S
C49         N345   1.445       .  S
C49          C50   1.383       .  A
C50          H52   1.082       .  S
N53          C57   1.353       .  A
N53          N54   1.321       .  A
N53         Cu61   2.090       .  S
N54          C55   1.338       .  A
N54         Cu60   2.059       .  S
C55          C56   1.378       .  A
C55          H58   1.082       .  S
C56          C57   1.389       .  A
C56         C104   1.471       .  S
C57          H59   1.082       .  S
Cu60         N63   2.058       .  S
Cu61         N71   2.093       .  S
Cu62         N64   2.072       .  S
Cu62         N70   2.074       .  S
N63          C67   1.340       .  A
N63          N64   1.319       .  A
N64          C65   1.349       .  A
C65          C66   1.387       .  A
C65          H68   1.082       .  S
C66          C67   1.382       .  A
C67          H69   1.082       .  S
N70          C74   1.344       .  A
N70          N71   1.326       .  A
N71          C72   1.347       .  A
C72          C73   1.387       .  A
C72          H75   1.080       .  S
C73         N373   1.441       .  S
C73          C74   1.380       .  A
C74          H76   1.082       .  S
N77          C81   1.355       .  A
N77          N78   1.320       .  A
N77         Cu85   2.101       .  S
N78          C79   1.337       .  A
N78         Cu84   2.052       .  S
C79          C80   1.379       .  A
C79          H82   1.081       .  S
C80          C81   1.393       .  A
C81          H83   1.082       .  S
Cu84         N87   2.053       .  S
Cu85         N95   2.104       .  S
Cu86         N88   2.087       .  S
Cu86         N94   2.091       .  S
N87          C91   1.339       .  A
N87          N88   1.319       .  A
N88          C89   1.353       .  A
C89          C90   1.390       .  A
C89          H92   1.082       .  S
C90          C91   1.380       .  A
C90         C114   1.474       .  S
C91          H93   1.082       .  S
N94          C98   1.345       .  A
N94          N95   1.329       .  A
N95          C96   1.351       .  A
C96          C97   1.385       .  A
C96          H99   1.081       .  S
C97          C98   1.381       .  A
C98         H100   1.082       .  S
N101        C105   1.353       .  A
N101        N102   1.320       .  A
N101       Cu109   2.091       .  S
N102        C103   1.338       .  A
N102       Cu108   2.052       .  S
C103        C104   1.378       .  A
C103        H106   1.082       .  S
C104        C105   1.390       .  A
C105        H107   1.082       .  S
Cu108       N111   2.053       .  S
Cu109       N119   2.094       .  S
Cu110       N112   2.094       .  S
Cu110       N118   2.099       .  S
N111        C115   1.339       .  A
N111        N112   1.320       .  A
N112        C113   1.354       .  A
C113        C114   1.390       .  A
C113        H116   1.082       .  S
C114        C115   1.379       .  A
C115        H117   1.082       .  S
N118        C122   1.347       .  A
N118        N119   1.329       .  A
N119        C120   1.349       .  A
C120        C121   1.381       .  A
C120        H123   1.082       .  S
C121        N228   1.442       .  S
C121        C122   1.382       .  A
C122        H124   1.082       .  S
N125        C129   1.351       .  A
N125        N126   1.322       .  A
N125       Cu133   2.093       .  S
N126        C127   1.341       .  A
N126       Cu132   2.064       .  S
C127        C128   1.381       .  A
C127        H130   1.082       .  S
C128        C129   1.389       .  A
C128        C176   1.477       .  S
C129        H131   1.082       .  S
Cu132       N135   2.064       .  S
Cu133       N143   2.094       .  S
Cu134       N136   2.076       .  S
Cu134       N142   2.078       .  S
N135        C139   1.341   1_565  A
N135        N136   1.320       .  A
N136        C137   1.349   1_565  A
C137        C138   1.385       .  A
C137        H140   1.082       .  S
C138        C139   1.381       .  A
C138        C850   1.468       .  S
C139        H141   1.082       .  S
N142        C146   1.343       .  A
N142        N143   1.326       .  A
N143        C144   1.350       .  A
C144        C145   1.387       .  A
C144        H147   1.081       .  S
C145        N359   1.442       .  S
C145        C146   1.381       .  A
C146        H148   1.082       .  S
N149        C153   1.350       .  A
N149        N150   1.320       .  A
N149       Cu157   2.084       .  S
N150        C151   1.341       .  A
N150       Cu156   2.064       .  S
C151        C152   1.383       .  A
C151        H154   1.082       .  S
C152        C153   1.388       .  A
C152        C200   1.476       .  S
C153        H155   1.082       .  S
Cu156       N159   2.064       .  S
Cu157       N167   2.087       .  S
Cu158       N160   2.079       .  S
Cu158       N166   2.081       .  S
N159        C163   1.340       .  A
N159        N160   1.321       .  A
N160        C161   1.349       .  A
C161        C162   1.385       .  A
C161        H164   1.082       .  S
C162        C163   1.380       .  A
C162        C826   1.466       .  S
C163        H165   1.082       .  S
N166        C170   1.348       .  A
N166        N167   1.326       .  A
N167        C168   1.345       .  A
C168        C169   1.380       .  A
C168        H171   1.082       .  S
C169        N387   1.439       .  S
C169        C170   1.382       .  A
C170        H172   1.082       .  S
N173        C177   1.351       .  A
N173        N174   1.320       .  A
N173       Cu181   2.087       .  S
N174        C175   1.341       .  A
N174       Cu180   2.060       .  S
C175        C176   1.382       .  A
C175        H178   1.082       .  S
C176        C177   1.389       .  A
C177        H179   1.082       .  S
Cu180       N183   2.059       .  S
Cu181       N191   2.090       .  S
Cu182       N184   2.084       .  S
Cu182       N190   2.087       .  S
N183        C187   1.339   1_565  A
N183        N184   1.321       .  A
N184        C185   1.352       .  A
C185        C186   1.388   1_565  A
C185        H188   1.082       .  S
C186        C187   1.379       .  A
C186        C898   1.471       .  S
C187        H189   1.082       .  S
N190        C194   1.348       .  A
N190        N191   1.327       .  A
N191        C192   1.346       .  A
C192        C193   1.382       .  A
C192        H195   1.082       .  S
C193        C194   1.382       .  A
C194        H196   1.081       .  S
N197        C201   1.351       .  A
N197        N198   1.320       .  A
N197       Cu205   2.086       .  S
N198        C199   1.340       .  A
N198       Cu204   2.057       .  S
C199        C200   1.381       .  A
C199        H202   1.082       .  S
C200        C201   1.389       .  A
C201        H203   1.082       .  S
Cu204       N207   2.057       .  S
Cu205       N215   2.088       .  S
Cu206       N208   2.096   1_455  S
Cu206       N214   2.098       .  S
N207        C211   1.340   1_455  A
N207        N208   1.321   1_455  A
N208        C209   1.353       .  A
C209        C210   1.389       .  A
C209        H212   1.082       .  S
C210        C211   1.378       .  A
C210        C874   1.471       .  S
C211        H213   1.082   1_655  S
N214        C218   1.349       .  A
N214        N215   1.327       .  A
N215        C216   1.346       .  A
C216        C217   1.382       .  A
C216        H219   1.082       .  S
C217        N242   1.445       .  S
C217        C218   1.386       .  A
C218        H220   1.081       .  S
N221        C225   1.366       .  A
N221        C222   1.360       .  A
N221        C341   1.441       .  S
C222        C223   1.381       .  A
C222        C617   1.483       .  S
C223        C224   1.365       .  A
C223        H226   1.083       .  S
C224        C225   1.385       .  A
C224        H227   1.081       .  S
C225        C629   1.490       .  S
N228        C232   1.363       .  A
N228        C229   1.367       .  A
C229        C230   1.386       .  A
C229        C608   1.495       .  S
C230        C231   1.363       .  A
C230        H233   1.080       .  S
C231        C232   1.380       .  A
C231        H234   1.082       .  S
C232        C632   1.485       .  S
N235        C239   1.361       .  A
N235        C236   1.362       .  A
N235        C493   1.440       .  S
C236        C237   1.387       .  A
C236        C620   1.494       .  S
C237        C238   1.365       .  A
C237        H240   1.082       .  S
C238        C239   1.380       .  A
C238        H241   1.082       .  S
C239        C593   1.483       .  S
N242        C246   1.362   1_455  A
N242        C243   1.367       .  A
C243        C244   1.387       .  A
C243        C605   1.496       .  S
C244        C245   1.366       .  A
C244        H247   1.081       .  S
C245        C246   1.380   1_455  A
C245        H248   1.082   1_455  S
C246        C596   1.483       .  S
N249        C253   1.356       .  A
N249        N250   1.318       .  A
N249       Cu257   2.092       .  S
N250        C251   1.337       .  A
N250       Cu256   2.057       .  S
C251        C252   1.383       .  A
C251        H254   1.081       .  S
C252        C253   1.393       .  A
C252        C300   1.482   1_554  S
C253        H255   1.082       .  S
Cu256       N259   2.057       .  S
Cu257       N267   2.096       .  S
Cu258       N260   2.097       .  S
Cu258       N266   2.102       .  S
N259        C263   1.338       .  A
N259        N260   1.321       .  A
N260        C261   1.355       .  A
C261        C262   1.393       .  A
C261        H264   1.082       .  S
C262        C263   1.380       .  A
C262        C286   1.479       .  S
C263        H265   1.081       .  S
N266        C270   1.352       .  A
N266        N267   1.329       .  A
N267        C268   1.344       .  A
C268        C269   1.381       .  A
C268        H271   1.082       .  S
C269        N352   1.445       .  S
C269        C270   1.386       .  A
C270        H272   1.081       .  S
N273        C277   1.355       .  A
N273        N274   1.319       .  A
N273       Cu281   2.096       .  S
N274        C275   1.340       .  A
N274       Cu280   2.064       .  S
C275        C276   1.384       .  A
C275        H278   1.081       .  S
C276        C277   1.393       .  A
C276        C324   1.485   1_554  S
C277        H279   1.082       .  S
Cu280       N283   2.065       .  S
Cu281       N291   2.099       .  S
Cu282       N284   2.090       .  S
Cu282       N290   2.093       .  S
N283        C287   1.338       .  A
N283        N284   1.321       .  A
N284        C285   1.354       .  A
C285        C286   1.390       .  A
C285        H288   1.082       .  S
C286        C287   1.382       .  A
C287        H289   1.081       .  S
N290        C294   1.352       .  A
N290        N291   1.329       .  A
N291        C292   1.344       .  A
C292        C293   1.380       .  A
C292        H295   1.082       .  S
C293        N380   1.441       .  S
C293        C294   1.383       .  A
C294        H296   1.082       .  S
N297        C301   1.358       .  A
N297        N298   1.320       .  A
N297       Cu305   2.111       .  S
N298        C299   1.335       .  A
N298       Cu304   2.047       .  S
C299        C300   1.378       .  A
C299        H302   1.081       .  S
C300        C301   1.397       .  A
C301        H303   1.082       .  S
Cu304       N307   2.048       .  S
Cu305       N315   2.116       .  S
Cu306       N308   2.081       .  S
Cu306       N314   2.085       .  S
N307        C311   1.337       .  A
N307        N308   1.317       .  A
N308        C309   1.353       .  A
C309        C310   1.391       .  A
C309        H312   1.082       .  S
C310        C311   1.380       .  A
C310        C334   1.475       .  S
C311        H313   1.081       .  S
N314        C318   1.344       .  A
N314        N315   1.330       .  A
N315        C316   1.353       .  A
C316        C317   1.386       .  A
C316        H319   1.082       .  S
C317        C318   1.377       .  A
C318        H320   1.082       .  S
N321        C325   1.356       .  A
N321        N322   1.320       .  A
N321       Cu329   2.106       .  S
N322        C323   1.339       .  A
N322       Cu328   2.059       .  S
C323        C324   1.381       .  A
C323        H326   1.081       .  S
C324        C325   1.395       .  A
C325        H327   1.082       .  S
Cu328       N331   2.058       .  S
Cu329       N339   2.110       .  S
Cu330       N332   2.076       .  S
Cu330       N338   2.079       .  S
N331        C335   1.338       .  A
N331        N332   1.319       .  A
N332        C333   1.352       .  A
C333        C334   1.389       .  A
C333        H336   1.082       .  S
C334        C335   1.381       .  A
C335        H337   1.081       .  S
N338        C342   1.346       .  A
N338        N339   1.329       .  A
N339        C340   1.350       .  A
C340        C341   1.386       .  A
C340        H343   1.082       .  S
C341        C342   1.378       .  A
C342        H344   1.082       .  S
N345        C349   1.367       .  A
N345        C346   1.359       .  A
C346        C347   1.381       .  A
C346        C569   1.482       .  S
C347        C348   1.366       .  A
C347        H350   1.083       .  S
C348        C349   1.386       .  A
C348        H351   1.081       .  S
C349        C581   1.504       .  S
N352        C356   1.366       .  A
N352        C353   1.370       .  A
C353        C354   1.387       .  A
C353        C557   1.503       .  S
C354        C355   1.362       .  A
C354        H357   1.080       .  S
C355        C356   1.380       .  A
C355        H358   1.083       .  S
C356        C584   1.489       .  S
N359        C363   1.366       .  A
N359        C360   1.358       .  A
C360        C361   1.381       .  A
C360        C572   1.481       .  S
C361        C362   1.367       .  A
C361        H364   1.083       .  S
C362        C363   1.387       .  A
C362        H365   1.081       .  S
C363        C545   1.504       .  S
N366        C370   1.367       .  A
N366        C367   1.368       .  A
N366        C421   1.441       .  S
C367        C368   1.385       .  A
C367        C560   1.500       .  S
C368        C369   1.365       .  A
C368        H371   1.081       .  S
C369        C370   1.382       .  A
C369        H372   1.082       .  S
C370        C548   1.495       .  S
N373        C377   1.365       .  A
N373        C374   1.354       .  A
C374        C375   1.379       .  A
C374        C521   1.473       .  S
C375        C376   1.368       .  A
C375        H378   1.083       .  S
C376        C377   1.387       .  A
C376        H379   1.081       .  S
C377        C533   1.500       .  S
N380        C384   1.362       .  A
N380        C381   1.362       .  A
C381        C382   1.384       .  A
C381        C512   1.491       .  S
C382        C383   1.366       .  A
C382        H385   1.082       .  S
C383        C384   1.383       .  A
C383        H386   1.083       .  S
C384        C536   1.486       .  S
N387        C391   1.359       .  A
N387        C388   1.359       .  A
C388        C389   1.386       .  A
C388        C524   1.489       .  S
C389        C390   1.369       .  A
C389        H392   1.082       .  S
C390        C391   1.380       .  A
C390        H393   1.082       .  S
C391        C497   1.481       .  S
N394        C398   1.362       .  A
N394        C395   1.354       .  A
N394        C428   1.441       .  S
C395        C396   1.381       .  A
C395        C509   1.474       .  S
C396        C397   1.368       .  A
C396        H399   1.083       .  S
C397        C398   1.385       .  A
C397        H400   1.082       .  S
C398        C500   1.495       .  S
N401        C405   1.350       .  A
N401        N402   1.320       .  A
N401       Cu409   2.077       .  S
N402        C403   1.339       .  A
N402       Cu408   2.061       .  S
C403        C404   1.382       .  A
C403        H406   1.082       .  S
C404        C405   1.388       .  A
C404        C462   1.474   1_554  S
C405        H407   1.082       .  S
Cu408       N411   2.063       .  S
Cu409       N419   2.080       .  S
Cu410       N412   2.099       .  S
Cu410       N418   2.101       .  S
N411        C415   1.341       .  A
N411        N412   1.322       .  A
N412        C413   1.353       .  A
C413        C414   1.391   1_565  A
C413        H416   1.082       .  S
C414        C415   1.382   1_545  A
C414        C438   1.481       .  S
C415        H417   1.082   1_565  S
N418        C422   1.351       .  A
N418        N419   1.327       .  A
N419        C420   1.344       .  A
C420        C421   1.379       .  A
C420        H423   1.082       .  S
C421        C422   1.385       .  A
C422        H424   1.082       .  S
N425        C429   1.352       .  A
N425        N426   1.328       .  A
N425       Cu433   2.098       .  S
N426        C427   1.344       .  A
N426       Cu432   2.089       .  S
C427        C428   1.380       .  A
C427        H430   1.082       .  S
C428        C429   1.384       .  A
C429        H431   1.082       .  S
Cu432      N1123   2.085       .  S
Cu433       N443   2.095       .  S
Cu434       N436   2.056       .  S
Cu434      N1130   2.054   1_455  S
N435        C439   1.353       .  A
N435        N436   1.318       .  A
N435      Cu1120   2.091   1_455  S
N436        C437   1.340       .  A
C437        C438   1.383       .  A
C437        H440   1.082       .  S
C438        C439   1.392       .  A
C439        H441   1.082       .  S
N442        C446   1.337       .  A
N442        N443   1.322       .  A
N442      Cu1122   2.055       .  S
N443        C444   1.354       .  A
C444        C445   1.390       .  A
C444        H447   1.082       .  S
C445        C446   1.378       .  A
C445        C476   1.473       .  S
C446       H1136   1.082       .  S
H448       C1134   1.081   1_455  S
N449        C453   1.354       .  A
N449        N450   1.321       .  A
N449       Cu457   2.099       .  S
N450        C451   1.337       .  A
N450       Cu456   2.052       .  S
C451        C452   1.378       .  A
C451        H454   1.082       .  S
C452        C453   1.392       .  A
C452        C486   1.475   1_565  S
C453        H455   1.082   1_455  S
Cu456       N459   2.052       .  S
Cu457       N467   2.102       .  S
Cu458       N460   2.077       .  S
Cu458       N466   2.081       .  S
N459        C463   1.338       .  A
N459        N460   1.318       .  A
N460        C461   1.351       .  A
C461        C462   1.390       .  A
C461        H464   1.082       .  S
C462        C463   1.381       .  A
C463        H465   1.081       .  S
N466        C470   1.343       .  A
N466        N467   1.328       .  A
N467        C468   1.351       .  A
C468        C469   1.386       .  A
C468        H471   1.081       .  S
C469        C470   1.379       .  A
C470        H472   1.082       .  S
N473        C477   1.354       .  A
N473        N474   1.320       .  A
N473       Cu481   2.087       .  S
N474        C475   1.337       .  A
N474       Cu480   2.058       .  S
C475        C476   1.379   1_556  A
C475       H1166   1.082   1_556  S
C476        C477   1.389   1_554  A
C477        H479   1.082       .  S
H478       C1163   1.081       .  S
Cu480      N1171   2.059       .  S
Cu481       N491   2.090       .  S
Cu482       N484   2.091       .  S
Cu482       N490   2.094       .  S
N483        C487   1.338   1_655  A
N483       N1172   1.318       .  A
N483      Cu1168   2.052       .  S
N484       C1173   1.353       .  A
N484       N1171   1.320       .  A
C485       N1172   1.353       .  A
C485        C486   1.390   1_655  A
C485        H488   1.082       .  S
C486        C487   1.381       .  A
C487        H489   1.082       .  S
N490        C494   1.348       .  A
N490        N491   1.329       .  A
N491        C492   1.346       .  A
C492        C493   1.380       .  A
C492        H495   1.082       .  S
C493        C494   1.382       .  A
C494        H496   1.082       .  S
C497        C498   1.403       .  A
C497       C1190   1.402   1_455  A
C498       C1187   1.398   1_455  A
C498        H503   1.084       .  S
C499        C500   1.414       .  A
C499       C1186   1.396       .  A
C499       O1192   1.370       .  S
C500        C501   1.412       .  A
C501        C502   1.405       .  A
C501        H505   1.082       .  S
C502       C1185   1.404       .  A
C502        O506   1.374       .  S
O504       C1187   1.370       .  S
O504        H508   0.991       .  S
O506        H507   0.991       .  S
C509        C510   1.403       .  A
C509        C514   1.401       .  A
C510        C511   1.400       .  A
C510        H515   1.084       .  S
C511        C512   1.412       .  A
C511        O516   1.371       .  S
C512        C513   1.410       .  A
C513        C514   1.402       .  A
C513        H517   1.084       .  S
C514        O518   1.372       .  S
O516        H520   0.991       .  S
O518        H519   0.992       .  S
C521        C522   1.400       .  A
C521        C526   1.402       .  A
C522        C523   1.397       .  A
C522        H527   1.084       .  S
C523        C524   1.414       .  A
C523        O528   1.371       .  S
C524        C525   1.410       .  A
C525        C526   1.401       .  A
C525        H529   1.084       .  S
C526        O530   1.371       .  S
O528        H532   0.992       .  S
O530        H531   0.992       .  S
C533        C534   1.414       .  A
C533        C538   1.413       .  A
C534        C535   1.406       .  A
C534        H539   1.082       .  S
C535        C536   1.404       .  A
C535        O540   1.373       .  S
C536        C537   1.405       .  A
C537        C538   1.397       .  A
C537        H541   1.084       .  S
C538        O542   1.370       .  S
O540        H544   0.991       .  S
O542        H543   0.992       .  S
C545        C550   1.414       .  A
C545       C1234   1.413       .  A
C546        C547   1.402   1_655  A
C546       C1233   1.413       .  A
C546       H1239   1.082       .  S
C547        C548   1.408       .  A
C547        O552   1.370       .  S
C548        C549   1.409       .  A
C549       C1238   1.401       .  A
C549        H553   1.084       .  S
C550       C1237   1.399       .  A
C550        O554   1.369       .  S
H551       C1234   1.082       .  S
O552        H556   0.993       .  S
O554        H555   0.991       .  S
C557        C558   1.405       .  A
C557        C562   1.417       .  A
C558        C559   1.401       .  A
C558        H563   1.079       .  S
C559        C560   1.415       .  A
C559        O564   1.371       .  S
C560        C561   1.404       .  A
C561        C562   1.401       .  A
C561        H565   1.080       .  S
C562        O566   1.371       .  S
O564        H568   0.992       .  S
O566        H567   0.991       .  S
C569        C570   1.404       .  A
C569        C574   1.410       .  A
C570        C571   1.403       .  A
C570        H575   1.084       .  S
C571        C572   1.410       .  A
C571        O576   1.372       .  S
C572        C573   1.404       .  A
C573        C574   1.402       .  A
C573        H577   1.084       .  S
C574        O578   1.371       .  S
O576        H580   0.993       .  S
O578        H579   0.991       .  S
C581        C582   1.415       .  A
C581        C586   1.412       .  A
C582        C583   1.405       .  A
C582        H587   1.082       .  S
C583        C584   1.405       .  A
C583        O588   1.371       .  S
C584        C585   1.407       .  A
C585        C586   1.400       .  A
C585        H589   1.084       .  S
C586        O590   1.370       .  S
O588        H592   0.991       .  S
O590        H591   0.992       .  S
C593        C594   1.400       .  A
C593        C598   1.412       .  A
C594       C1283   1.398       .  A
C594       H1287   1.082       .  S
C595        C596   1.408       .  A
C595       C1282   1.394       .  A
C595        O600   1.372       .  S
C596       C1285   1.401       .  A
C597        C598   1.399       .  A
C597       C1284   1.402       .  A
C597        H601   1.082       .  S
C598        O602   1.374       .  S
H599       C1282   1.080       .  S
O600        H604   0.991   1_655  S
O602        H603   0.993       .  S
C605        C606   1.402       .  A
C605        C610   1.415       .  A
C606        C607   1.402       .  A
C606        H611   1.080       .  S
C607        C608   1.415       .  A
C607        O612   1.375       .  S
C608        C609   1.403       .  A
C609        C610   1.401       .  A
C609        H613   1.080       .  S
C610        O614   1.371       .  S
O612        H616   0.992       .  S
O614        H615   0.992       .  S
C617        C618   1.403       .  A
C617        C622   1.407       .  A
C618        C619   1.397       .  A
C618        H623   1.084       .  S
C619        C620   1.414       .  A
C619        O624   1.369       .  S
C620        C621   1.410       .  A
C621        C622   1.401       .  A
C621        H625   1.084       .  S
C622        O626   1.372       .  S
O624        H628   0.992       .  S
O626        H627   0.992       .  S
C629        C630   1.402       .  A
C629        C634   1.415       .  A
C630        C631   1.399       .  A
C630        H635   1.081       .  S
C631        C632   1.410       .  A
C631        O636   1.374       .  S
C632        C633   1.401       .  A
C633        C634   1.403       .  A
C633        H637   1.082       .  S
C634        O638   1.375       .  S
O636        H640   0.992       .  S
O638        H639   0.992       .  S
C641        C646   1.411   1_655  A
C641       C1330   1.402       .  A
C642        C643   1.402       .  A
C642       C1329   1.403       .  A
C642        H647   1.084       .  S
C643        C644   1.409       .  A
C643        O648   1.373       .  S
C644       C1333   1.401       .  A
C645        C646   1.400   1_655  A
C645       C1332   1.402       .  A
C645        H649   1.084   1_655  S
C646        O650   1.371       .  S
O648        H652   0.994       .  S
O650        H651   0.991       .  S
C653        C654   1.406       .  A
C653        C658   1.419       .  A
C654        C655   1.396       .  A
C654        H659   1.079       .  S
C655        C656   1.409       .  A
C655        O660   1.375       .  S
C656        C657   1.402       .  A
C657        C658   1.406       .  A
C657        H661   1.082       .  S
C658        O662   1.370       .  S
O660        H664   0.993       .  S
O662        H663   0.991       .  S
C665        C666   1.403       .  A
C665        C670   1.405       .  A
C666        C667   1.397       .  A
C666        H671   1.084       .  S
C667        C668   1.417       .  A
C667        O672   1.367       .  S
C668        C669   1.417       .  A
C669        C670   1.406       .  A
C669        H673   1.081       .  S
C670        O674   1.372       .  S
O672        H676   0.992       .  S
O674        H675   0.992       .  S
C677        C678   1.402       .  A
C677        C682   1.415       .  A
C678        C679   1.400       .  A
C678        H683   1.081       .  S
C679        C680   1.416       .  A
C679        O684   1.371       .  S
C680        C681   1.403       .  A
C681        C682   1.399       .  A
C681        H685   1.080       .  S
C682        O686   1.372       .  S
O684        H688   0.991       .  S
O686        H687   0.991       .  S
N689        C693   1.366       .  A
N689        C690   1.359       .  A
N689        C785   1.444       .  S
C690        C691   1.376       .  A
C690       C1353   1.472       .  S
C691        C692   1.366       .  A
C691        H694   1.083       .  S
C692        C693   1.388       .  A
C692        H695   1.082       .  S
C693       C1365   1.492       .  S
N696        C700   1.367       .  A
N696        C697   1.366       .  A
N696       C1005   1.443       .  S
C697        C698   1.384       .  A
C697       C1344   1.494       .  S
C698        C699   1.365       .  A
C698        H701   1.081       .  S
C699        C700   1.383       .  A
C699        H702   1.082       .  S
C700       C1368   1.495       .  S
N703        C707   1.357       .  A
N703        C704   1.366       .  A
N703       C1157   1.443       .  S
C704        C705   1.388       .  A
C704       C1341   1.506       .  S
C705        C706   1.367       .  A
C705        H708   1.078       .  S
C706        C707   1.381       .  A
C706        H709   1.083       .  S
C707       C1329   1.481       .  S
N710        C714   1.353       .  A
N710        C711   1.364       .  A
N710        C881   1.441       .  S
C711        C712   1.389       .  A
C711       C1356   1.507       .  S
C712        C713   1.370       .  A
C712        H715   1.081       .  S
C713        C714   1.381       .  A
C713        H716   1.083       .  S
C714       C1332   1.483       .  S
N717        C721   1.356       .  A
N717        N718   1.321       .  A
N717       Cu725   2.107       .  S
N718        C719   1.337       .  A
N718       Cu724   2.057       .  S
C719        C720   1.380       .  A
C719        H722   1.081       .  S
C720        C721   1.394       .  A
C720        C768   1.482       .  S
C721        H723   1.082       .  S
Cu724       N727   2.058       .  S
Cu725       N735   2.110       .  S
Cu726       N728   2.075       .  S
Cu726       N734   2.077       .  S
N727        C731   1.340       .  A
N727        N728   1.319       .  A
N728        C729   1.349       .  A
C729        C730   1.387       .  A
C729        H732   1.082       .  S
C730        C731   1.382       .  A
C730        C754   1.473       .  S
C731        H733   1.082       .  S
N734        C738   1.343       .  A
N734        N735   1.327       .  A
N735        C736   1.353       .  A
C736        C737   1.389       .  A
C736        H739   1.081       .  S
C737       N1033   1.444       .  S
C737        C738   1.380       .  A
C738        H740   1.082       .  S
N741        C745   1.357       .  A
N741        N742   1.321       .  A
N741       Cu749   2.109       .  S
N742        C743   1.336       .  A
N742       Cu748   2.052       .  S
C743        C744   1.378       .  A
C743        H746   1.082       .  S
C744        C745   1.394       .  A
C744        C792   1.479       .  S
C745        H747   1.082       .  S
Cu748       N751   2.053       .  S
Cu749       N759   2.111       .  S
Cu750       N752   2.076       .  S
Cu750       N758   2.080       .  S
N751        C755   1.340       .  A
N751        N752   1.318       .  A
N752        C753   1.349       .  A
C753        C754   1.388       .  A
C753        H756   1.082       .  S
C754        C755   1.381       .  A
C755        H757   1.082       .  S
N758        C762   1.343       .  A
N758        N759   1.328       .  A
N759        C760   1.353       .  A
C760        C761   1.387       .  A
C760        H763   1.081       .  S
C761       N1061   1.443       .  S
C761        C762   1.378       .  A
C762        H764   1.082       .  S
N765        C769   1.355       .  A
N765        N766   1.319       .  A
N765       Cu773   2.098       .  S
N766        C767   1.338       .  A
N766       Cu772   2.057       .  S
C767        C768   1.382       .  A
C767        H770   1.081       .  S
C768        C769   1.393       .  A
C769        H771   1.082       .  S
Cu772       N775   2.056       .  S
Cu773       N783   2.103       .  S
Cu774       N776   2.091       .  S
Cu774       N782   2.095       .  S
N775        C779   1.337       .  A
N775        N776   1.320       .  A
N776        C777   1.355       .  A
C777        C778   1.391       .  A
C777        H780   1.082       .  S
C778        C779   1.379       .  A
C778        C802   1.476       .  S
C779        H781   1.082       .  S
N782        C786   1.348       .  A
N782        N783   1.329       .  A
N783        C784   1.348       .  A
C784        C785   1.385       .  A
C784        H787   1.081       .  S
C785        C786   1.382       .  A
C786        H788   1.082       .  S
N789        C793   1.356       .  A
N789        N790   1.319       .  A
N789       Cu797   2.092       .  S
N790        C791   1.337       .  A
N790       Cu796   2.056       .  S
C791        C792   1.381       .  A
C791        H794   1.082       .  S
C792        C793   1.392       .  A
C793        H795   1.082       .  S
Cu796       N799   2.056       .  S
Cu797       N807   2.095       .  S
Cu798       N800   2.090       .  S
Cu798       N806   2.095       .  S
N799        C803   1.337       .  A
N799        N800   1.320       .  A
N800        C801   1.355       .  A
C801        C802   1.391       .  A
C801        H804   1.082       .  S
C802        C803   1.379       .  A
C803        H805   1.082       .  S
N806        C810   1.349       .  A
N806        N807   1.329       .  A
N807        C808   1.345       .  A
C808        C809   1.383       .  A
C808        H811   1.082       .  S
C809        N916   1.443       .  S
C809        C810   1.385       .  A
C810        H812   1.081       .  S
N813        C817   1.351       .  A
N813        N814   1.321       .  A
N813       Cu821   2.099       .  S
N814        C815   1.342       .  A
N814       Cu820   2.054       .  S
C815        C816   1.379       .  A
C815        H818   1.082       .  S
C816        C817   1.390       .  A
C816        C864   1.476       .  S
C817        H819   1.082       .  S
Cu820       N823   2.054       .  S
Cu821       N831   2.102       .  S
Cu822       N824   2.082       .  S
Cu822       N830   2.084       .  S
N823        C827   1.339   1_565  A
N823        N824   1.321       .  A
N824        C825   1.350   1_655  A
C825        C826   1.386   1_565  A
C825        H828   1.082       .  S
C826        C827   1.378   1_455  A
C827        H829   1.082       .  S
N830        C834   1.345       .  A
N830        N831   1.325       .  A
N831        C832   1.350       .  A
C832        C833   1.390       .  A
C832        H835   1.081       .  S
C833       N1047   1.447       .  S
C833        C834   1.384       .  A
C834        H836   1.082       .  S
N837        C841   1.354       .  A
N837        N838   1.319       .  A
N837       Cu845   2.090       .  S
N838        C839   1.338       .  A
N838       Cu844   2.054       .  S
C839        C840   1.381       .  A
C839        H842   1.082       .  S
C840        C841   1.391       .  A
C840        C888   1.477       .  S
C841        H843   1.082       .  S
Cu844       N847   2.053       .  S
Cu845       N855   2.093       .  S
Cu846       N848   2.089       .  S
Cu846       N854   2.093       .  S
N847        C851   1.339       .  A
N847        N848   1.320       .  A
N848        C849   1.351       .  A
C849        C850   1.388       .  A
C849        H852   1.082       .  S
C850        C851   1.378       .  A
C851        H853   1.082       .  S
N854        C858   1.348       .  A
N854        N855   1.328       .  A
N855        C856   1.346       .  A
C856        C857   1.380       .  A
C856        H859   1.082       .  S
C857       N1075   1.440       .  S
C857        C858   1.384       .  A
C858        H860   1.082       .  S
N861        C865   1.347       .  A
N861        N862   1.320       .  A
N861       Cu869   2.068       .  S
N862        C863   1.345       .  A
N862       Cu868   2.077       .  S
C863        C864   1.387       .  A
C863        H866   1.082       .  S
C864        C865   1.384       .  A
C865        H867   1.082       .  S
Cu868       N871   2.076       .  S
Cu869       N879   2.069       .  S
Cu870       N872   2.094       .  S
Cu870       N878   2.093       .  S
N871        C875   1.343   1_565  A
N871        N872   1.324       .  A
N872        C873   1.350       .  A
C873        C874   1.387   1_565  A
C873        H876   1.082       .  S
C874        C875   1.382       .  A
C875        H877   1.082       .  S
N878        C882   1.352       .  A
N878        N879   1.324       .  A
N879        C880   1.341       .  A
C880        C881   1.382       .  A
C880        H883   1.082       .  S
C881        C882   1.387       .  A
C882        H884   1.082       .  S
N885        C889   1.355       .  A
N885        N886   1.321       .  A
N885       Cu893   2.099       .  S
N886        C887   1.337       .  A
N886       Cu892   2.053       .  S
C887        C888   1.379       .  A
C887        H890   1.082       .  S
C888        C889   1.392       .  A
C889        H891   1.082       .  S
Cu892       N895   2.053       .  S
Cu893       N903   2.103       .  S
Cu894       N896   2.087       .  S
Cu894       N902   2.092       .  S
N895        C899   1.338       .  A
N895        N896   1.319       .  A
N896        C897   1.352       .  A
C897        C898   1.389       .  A
C897        H900   1.082       .  S
C898        C899   1.379       .  A
C899        H901   1.082       .  S
N902        C906   1.345       .  A
N902        N903   1.329       .  A
N903        C904   1.352       .  A
C904        C905   1.385       .  A
C904        H907   1.081       .  S
C905        N930   1.444       .  S
C905        C906   1.381       .  A
C906        H908   1.082       .  S
N909        C913   1.353       .  A
N909        C910   1.362       .  A
N909       C1029   1.443       .  S
C910        C911   1.391       .  A
C910       C1305   1.511       .  S
C911        C912   1.372       .  A
C911        H914   1.080       .  S
C912        C913   1.380       .  A
C912        H915   1.083       .  S
C913       C1317   1.487       .  S
N916        C920   1.357       .  A
N916        C917   1.364       .  A
C917        C918   1.388       .  A
C917       C1296   1.503       .  S
C918        C919   1.370       .  A
C918        H921   1.078       .  S
C919        C920   1.380       .  A
C919        H922   1.083       .  S
C920       C1320   1.483       .  S
N923        C927   1.362       .  A
N923        C924   1.352       .  A
N923       C1181   1.439       .  S
C924        C925   1.379       .  A
C924       C1308   1.471       .  S
C925        C926   1.372       .  A
C925        H928   1.083       .  S
C926        C927   1.387       .  A
C926        H929   1.080       .  S
C927       C1281   1.494       .  S
N930        C934   1.364       .  A
N930        C931   1.359       .  A
C931        C932   1.380       .  A
C931       C1293   1.475       .  S
C932        C933   1.362       .  A
C932        H935   1.083       .  S
C933        C934   1.385       .  A
C933        H936   1.082       .  S
C934       C1284   1.486       .  S
N937        C941   1.355       .  A
N937        N938   1.320       .  A
N937       Cu945   2.093       .  S
N938        C939   1.338       .  A
N938       Cu944   2.061       .  S
C939        C940   1.382       .  A
C939        H942   1.082       .  S
C940        C941   1.392       .  A
C940        C988   1.480   1_554  S
C941        H943   1.082       .  S
Cu944       N947   2.062       .  S
Cu945       N955   2.097       .  S
Cu946       N948   2.098       .  S
Cu946       N954   2.101       .  S
N947        C951   1.340       .  A
N947        N948   1.321       .  A
N948        C949   1.354       .  A
C949        C950   1.391       .  A
C949        H952   1.082       .  S
C950        C951   1.380       .  A
C950        C974   1.476       .  S
C951        H953   1.082       .  S
N954        C958   1.351       .  A
N954        N955   1.329       .  A
N955        C956   1.346       .  A
C956        C957   1.381       .  A
C956        H959   1.082       .  S
C957       N1040   1.444       .  S
C957        C958   1.384       .  A
C958        H960   1.081       .  S
N961        C965   1.348       .  A
N961        N962   1.320       .  A
N961       Cu969   2.075       .  S
N962        C963   1.342       .  A
N962       Cu968   2.062       .  S
C963        C964   1.382       .  A
C963        H966   1.082       .  S
C964        C965   1.387       .  A
C964       C1012   1.473       .  S
C965        H967   1.082       .  S
Cu968       N971   2.063       .  S
Cu969       N979   2.076       .  S
Cu970       N972   2.103       .  S
Cu970       N978   2.104       .  S
N971        C975   1.340       .  A
N971        N972   1.322       .  A
N972        C973   1.355       .  A
C973        C974   1.391       .  A
C973        H976   1.082       .  S
C974        C975   1.379       .  A
C975        H977   1.082       .  S
N978        C982   1.349       .  A
N978        N979   1.327       .  A
N979        C980   1.345       .  A
C980        C981   1.380       .  A
C980        H983   1.082       .  S
C981       N1068   1.443       .  S
C981        C982   1.388       .  A
C982        H984   1.081       .  S
N985        C989   1.357       .  A
N985        N986   1.319       .  A
N985       Cu993   2.102       .  S
N986        C987   1.336       .  A
N986       Cu992   2.047       .  S
C987        C988   1.379       .  A
C987        H990   1.081       .  S
C988        C989   1.395       .  A
C989        H991   1.082       .  S
Cu992       N995   2.047       .  S
Cu993      N1003   2.106       .  S
Cu994       N996   2.087       .  S
Cu994      N1002   2.092       .  S
N995        C999   1.338       .  A
N995        N996   1.319       .  A
N996        C997   1.353       .  A
C997        C998   1.390       .  A
C997       H1000   1.082       .  S
C998        C999   1.378       .  A
C998       C1022   1.470       .  S
C999       H1001   1.082       .  S
N1002      C1006   1.346       .  A
N1002      N1003   1.330       .  A
N1003      C1004   1.349       .  A
C1004      C1005   1.383       .  A
C1004      H1007   1.082       .  S
C1005      C1006   1.380       .  A
C1006      H1008   1.082       .  S
N1009      C1013   1.348       .  A
N1009      N1010   1.320       .  A
N1009     Cu1017   2.077       .  S
N1010      C1011   1.342       .  A
N1010     Cu1016   2.064       .  S
C1011      C1012   1.382   1_556  A
C1011      H1014   1.082       .  S
C1012      C1013   1.386   1_554  A
C1013      H1015   1.082       .  S
Cu1016     N1019   2.064       .  S
Cu1017     N1027   2.079       .  S
Cu1018     N1020   2.087       .  S
Cu1018     N1026   2.088       .  S
N1019      C1023   1.340       .  A
N1019      N1020   1.322       .  A
N1020      C1021   1.351       .  A
C1021      C1022   1.387       .  A
C1021      H1024   1.082       .  S
C1022      C1023   1.380       .  A
C1023      H1025   1.082       .  S
N1026      C1030   1.349       .  A
N1026      N1027   1.326       .  A
N1027      C1028   1.344       .  A
C1028      C1029   1.384       .  A
C1028      H1031   1.082       .  S
C1029      C1030   1.385       .  A
C1030      H1032   1.082       .  S
N1033      C1037   1.366       .  A
N1033      C1034   1.358       .  A
C1034      C1035   1.382       .  A
C1034      C1257   1.482       .  S
C1035      C1036   1.368       .  A
C1035      H1038   1.083       .  S
C1036      C1037   1.386       .  A
C1036      H1039   1.081       .  S
C1037      C1269   1.506       .  S
N1040      C1044   1.364       .  A
N1040      C1041   1.368       .  A
C1041      C1042   1.388       .  A
C1041      C1245   1.499       .  S
C1042      C1043   1.363       .  A
C1042      H1045   1.081       .  S
C1043      C1044   1.379       .  A
C1043      H1046   1.083       .  S
C1044      C1272   1.487       .  S
N1047      C1051   1.368       .  A
N1047      C1048   1.361       .  A
C1048      C1049   1.380       .  A
C1048      C1260   1.482       .  S
C1049      C1050   1.364       .  A
C1049      H1052   1.083       .  S
C1050      C1051   1.387       .  A
C1050      H1053   1.081       .  S
C1051      C1233   1.504       .  S
N1054      C1058   1.363       .  A
N1054      C1055   1.366       .  A
N1054      C1109   1.436       .  S
C1055      C1056   1.385       .  A
C1055      C1248   1.499       .  S
C1056      C1057   1.367       .  A
C1056      H1059   1.081       .  S
C1057      C1058   1.382       .  A
C1057      H1060   1.082       .  S
C1058      C1236   1.493       .  S
N1061      C1065   1.367       .  A
N1061      C1062   1.360       .  A
C1062      C1063   1.381       .  A
C1062      C1209   1.481       .  S
C1063      C1064   1.366       .  A
C1063      H1066   1.083       .  S
C1064      C1065   1.385       .  A
C1064      H1067   1.082       .  S
C1065      C1221   1.496       .  S
N1068      C1072   1.365       .  A
N1068      C1069   1.366       .  A
C1069      C1070   1.383       .  A
C1069      C1200   1.489       .  S
C1070      C1071   1.365       .  A
C1070      H1073   1.083       .  S
C1071      C1072   1.381       .  A
C1071      H1074   1.083       .  S
C1072      C1224   1.485       .  S
N1075      C1079   1.358       .  A
N1075      C1076   1.363       .  A
C1076      C1077   1.388       .  A
C1076      C1212   1.498       .  S
C1077      C1078   1.370       .  A
C1077      H1080   1.082       .  S
C1078      C1079   1.380       .  A
C1078      H1081   1.082       .  S
C1079      C1185   1.481       .  S
N1082      C1086   1.365       .  A
N1082      C1083   1.357       .  A
N1082      C1116   1.444       .  S
C1083      C1084   1.380       .  A
C1083      C1197   1.479       .  S
C1084      C1085   1.364       .  A
C1084      H1087   1.083       .  S
C1085      C1086   1.387       .  A
C1085      H1088   1.080       .  S
C1086      C1188   1.504       .  S
N1089      C1093   1.350       .  A
N1089      N1090   1.319       .  A
N1089     Cu1097   2.073       .  S
N1090      C1091   1.339       .  A
N1090     Cu1096   2.059       .  S
C1091      C1092   1.382       .  A
C1091      H1094   1.081       .  S
C1092      C1093   1.388       .  A
C1092      C1150   1.473       .  S
C1093      H1095   1.082       .  S
Cu1096     N1099   2.061       .  S
Cu1097     N1107   2.075       .  S
Cu1098     N1100   2.087       .  S
Cu1098     N1106   2.090       .  S
N1099      C1103   1.339   1_565  A
N1099      N1100   1.321       .  A
N1100      C1101   1.352   1_565  A
C1101      C1102   1.390       .  A
C1101      H1104   1.082       .  S
C1102      C1103   1.381       .  A
C1102      C1126   1.477       .  S
C1103      H1105   1.082       .  S
N1106      C1110   1.348       .  A
N1106      N1107   1.328       .  A
N1107      C1108   1.343       .  A
C1108      C1109   1.377       .  A
C1108      H1111   1.082       .  S
C1109      C1110   1.382       .  A
C1110      H1112   1.082       .  S
N1113      C1117   1.353       .  A
N1113      N1114   1.329       .  A
N1113     Cu1121   2.105       .  S
N1114      C1115   1.344       .  A
N1114     Cu1120   2.096       .  S
C1115      C1116   1.383       .  A
C1115      H1118   1.082       .  S
C1116      C1117   1.386       .  A
C1117      H1119   1.082       .  S
Cu1121     N1131   2.101       .  S
Cu1122     N1124   2.056       .  S
N1123      C1127   1.352       .  A
N1123      N1124   1.319       .  A
N1124      C1125   1.340       .  A
C1125      C1126   1.382       .  A
C1125      H1128   1.082       .  S
C1126      C1127   1.390       .  A
C1127      H1129   1.082       .  S
N1130      C1134   1.335       .  A
N1130      N1131   1.321       .  A
N1131      C1132   1.357       .  A
C1132      C1133   1.394       .  A
C1132      H1135   1.082       .  S
C1133      C1134   1.379       .  A
C1133      C1164   1.481   1_554  S
N1137      C1141   1.355       .  A
N1137      N1138   1.323       .  A
N1137     Cu1145   2.107       .  S
N1138      C1139   1.339   1_565  A
N1138     Cu1144   2.056       .  S
C1139      C1140   1.378       .  A
C1139      H1142   1.082       .  S
C1140      C1141   1.391   1_545  A
C1140      C1174   1.476       .  S
C1141      H1143   1.082       .  S
Cu1144     N1147   2.054       .  S
Cu1145     N1155   2.109       .  S
Cu1146     N1148   2.074       .  S
Cu1146     N1154   2.078       .  S
N1147      C1151   1.339       .  A
N1147      N1148   1.318       .  A
N1148      C1149   1.350       .  A
C1149      C1150   1.388   1_556  A
C1149      H1152   1.082       .  S
C1150      C1151   1.382   1_554  A
C1151      H1153   1.082       .  S
N1154      C1158   1.342       .  A
N1154      N1155   1.327       .  A
N1155      C1156   1.354       .  A
C1156      C1157   1.388       .  A
C1156      H1159   1.081       .  S
C1157      C1158   1.379       .  A
C1158      H1160   1.082       .  S
N1161      C1165   1.358       .  A
N1161      N1162   1.320       .  A
N1161     Cu1169   2.101       .  S
N1162      C1163   1.334       .  A
N1162     Cu1168   2.051       .  S
C1163      C1164   1.379       .  A
C1164      C1165   1.395       .  A
C1165      H1167   1.082       .  S
Cu1169     N1179   2.106       .  S
Cu1170     N1172   2.082       .  S
Cu1170     N1178   2.086       .  S
N1171      C1175   1.340       .  A
C1173      C1174   1.389       .  A
C1173      H1176   1.082       .  S
C1174      C1175   1.381       .  A
C1175      H1177   1.082       .  S
N1178      C1182   1.344       .  A
N1178      N1179   1.330       .  A
N1179      C1180   1.350       .  A
C1180      C1181   1.384       .  A
C1180      H1183   1.081       .  S
C1181      C1182   1.377       .  A
C1182      H1184   1.082       .  S
C1185      C1186   1.402       .  A
C1186      H1191   1.084       .  S
C1187      C1188   1.415       .  A
C1188      C1189   1.414       .  A
C1189      C1190   1.403       .  A
C1189      H1193   1.080       .  S
C1190      O1194   1.374       .  S
O1192      H1196   0.992       .  S
O1194      H1195   0.991       .  S
C1197      C1198   1.407       .  A
C1197      C1202   1.403       .  A
C1198      C1199   1.405       .  A
C1198      H1203   1.084       .  S
C1199      C1200   1.408       .  A
C1199      O1204   1.371       .  S
C1200      C1201   1.409       .  A
C1201      C1202   1.402       .  A
C1201      H1205   1.084       .  S
C1202      O1206   1.372       .  S
O1204      H1208   0.991       .  S
O1206      H1207   0.992       .  S
C1209      C1210   1.403       .  A
C1209      C1214   1.403       .  A
C1210      C1211   1.397       .  A
C1210      H1215   1.084       .  S
C1211      C1212   1.413       .  A
C1211      O1216   1.370       .  S
C1212      C1213   1.414       .  A
C1213      C1214   1.406       .  A
C1213      H1217   1.083       .  S
C1214      O1218   1.372       .  S
O1216      H1220   0.992       .  S
O1218      H1219   0.991       .  S
C1221      C1222   1.411       .  A
C1221      C1226   1.412       .  A
C1222      C1223   1.405       .  A
C1222      H1227   1.083       .  S
C1223      C1224   1.406       .  A
C1223      O1228   1.373       .  S
C1224      C1225   1.404       .  A
C1225      C1226   1.398       .  A
C1225      H1229   1.084       .  S
C1226      O1230   1.370       .  S
O1228      H1232   0.992       .  S
O1230      H1231   0.992       .  S
C1233      C1238   1.412   1_655  A
C1234      C1235   1.402       .  A
C1235      C1236   1.409       .  A
C1235      O1240   1.370       .  S
C1236      C1237   1.405       .  A
C1237      H1241   1.084       .  S
C1238      O1242   1.370       .  S
O1240      H1244   0.992       .  S
O1242      H1243   0.992   1_455  S
C1245      C1246   1.404       .  A
C1245      C1250   1.416       .  A
C1246      C1247   1.400       .  A
C1246      H1251   1.079       .  S
C1247      C1248   1.415       .  A
C1247      O1252   1.371       .  S
C1248      C1249   1.405       .  A
C1249      C1250   1.401       .  A
C1249      H1253   1.079       .  S
C1250      O1254   1.372       .  S
O1252      H1256   0.992       .  S
O1254      H1255   0.991       .  S
C1257      C1258   1.404       .  A
C1257      C1262   1.410       .  A
C1258      C1259   1.404       .  A
C1258      H1263   1.084       .  S
C1259      C1260   1.410       .  A
C1259      O1264   1.372       .  S
C1260      C1261   1.404       .  A
C1261      C1262   1.401       .  A
C1261      H1265   1.084       .  S
C1262      O1266   1.371       .  S
O1264      H1268   0.993       .  S
O1266      H1267   0.991       .  S
C1269      C1270   1.416       .  A
C1269      C1274   1.414       .  A
C1270      C1271   1.405       .  A
C1270      H1275   1.082       .  S
C1271      C1272   1.404       .  A
C1271      O1276   1.371       .  S
C1272      C1273   1.404       .  A
C1273      C1274   1.398       .  A
C1273      H1277   1.084       .  S
C1274      O1278   1.370       .  S
O1276      H1280   0.992       .  S
O1278      H1279   0.993       .  S
C1281      C1282   1.404       .  A
C1281      C1286   1.417       .  A
C1283      C1284   1.413       .  A
C1283      O1288   1.371       .  S
C1285      C1286   1.406       .  A
C1285      H1289   1.083       .  S
C1286      O1290   1.373       .  S
O1288      H1292   0.992       .  S
O1290      H1291   0.993       .  S
C1293      C1294   1.398       .  A
C1293      C1298   1.406       .  A
C1294      C1295   1.408       .  A
C1294      H1299   1.083       .  S
C1295      C1296   1.420       .  A
C1295      O1300   1.374       .  S
C1296      C1297   1.408       .  A
C1297      C1298   1.393       .  A
C1297      H1301   1.078       .  S
C1298      O1302   1.372       .  S
O1300      H1304   0.993       .  S
O1302      H1303   0.992       .  S
C1305      C1306   1.418       .  A
C1305      C1310   1.418       .  A
C1306      C1307   1.402       .  A
C1306      H1311   1.079       .  S
C1307      C1308   1.398       .  A
C1307      O1312   1.372       .  S
C1308      C1309   1.396       .  A
C1309      C1310   1.396       .  A
C1309      H1313   1.084       .  S
C1310      O1314   1.367       .  S
O1312      H1316   0.991       .  S
O1314      H1315   0.992       .  S
C1317      C1318   1.404       .  A
C1317      C1322   1.414       .  A
C1318      C1319   1.403       .  A
C1318      H1323   1.084       .  S
C1319      C1320   1.411       .  A
C1319      O1324   1.372       .  S
C1320      C1321   1.402       .  A
C1321      C1322   1.401       .  A
C1321      H1325   1.084       .  S
C1322      O1326   1.372       .  S
O1324      H1328   0.991       .  S
O1326      H1327   0.991       .  S
C1329      C1334   1.412       .  A
C1330      C1331   1.402       .  A
C1330      H1335   1.084       .  S
C1331      C1332   1.412       .  A
C1331      O1336   1.372       .  S
C1333      C1334   1.402       .  A
C1333      H1337   1.083       .  S
C1334      O1338   1.371       .  S
O1336      H1340   0.993       .  S
O1338      H1339   0.991       .  S
C1341      C1342   1.406       .  A
C1341      C1346   1.419       .  A
C1342      C1343   1.400       .  A
C1342      H1347   1.078       .  S
C1343      C1344   1.412       .  A
C1343      O1348   1.375       .  S
C1344      C1345   1.403       .  A
C1345      C1346   1.403       .  A
C1345      H1349   1.081       .  S
C1346      O1350   1.370       .  S
O1348      H1352   0.992       .  S
O1350      H1351   0.992       .  S
C1353      C1354   1.398       .  A
C1353      C1358   1.399       .  A
C1354      C1355   1.401       .  A
C1354      H1359   1.084       .  S
C1355      C1356   1.416       .  A
C1355      O1360   1.368       .  S
C1356      C1357   1.418       .  A
C1357      C1358   1.400       .  A
C1357      H1361   1.080       .  S
C1358      O1362   1.371       .  S
O1360      H1364   0.992       .  S
O1362      H1363   0.991       .  S
C1365      C1366   1.402       .  A
C1365      C1370   1.414       .  A
C1366      C1367   1.400       .  A
C1366      H1371   1.081       .  S
C1367      C1368   1.417       .  A
C1367      O1372   1.372       .  S
C1368      C1369   1.403       .  A
C1369      C1370   1.399       .  A
C1369      H1373   1.081       .  S
C1370      O1374   1.372       .  S
O1372      H1376   0.991       .  S
O1374      H1375   0.992       .  S
