geometry optimzed in LAMMPS
_audit_creation_date              2020-11-30 
_audit_creation_method            'lammps2cif' 
_symmetry_space_group_name_H-M    'P1' 
_symmetry_Int_Tables_number       1 
_symmetry_cell_setting            triclinic 
loop_ 
_symmetry_equiv_pos_as_xyz 
  x,y,z 
_cell_length_a                    30.04268829 
_cell_length_b                    30.023984274020602 
_cell_length_c                    26.35942835772933 
_cell_angle_alpha                 88.29801868698603 
_cell_angle_beta                  88.64534021785414 
_cell_angle_gamma                 90.05367383827186 
loop_ 
_atom_site_label 
_atom_site_type_symbol 
_atom_site_fract_x 
_atom_site_fract_y 
_atom_site_fract_z 
_atom_site_charge 
C1          C  0.87570672  0.38048109  0.05391794     0.30600
C2          C  0.87121897  0.37802993  0.45063937     0.30600
C3          C  0.82928710  0.39040935  0.03275277    -0.05600
C4          C  0.90556636  0.41322902  0.02251659    -0.06400
C5          C  0.88762398  0.33553628  0.03013284    -0.06300
C6          C  0.82816657  0.38734096  0.47982730    -0.05700
C7          C  0.90271783  0.41294756  0.47074639    -0.06400
C8          C  0.88812254  0.33478740  0.47703254    -0.06300
C9          C  0.78565265  0.39758481  0.46661751    -0.31700
N10         N  0.76013174  0.40825956  0.01072239     0.14800
C11         C  0.78770083  0.40272087  0.05084022    -0.31700
H12         H  0.77842933  0.40738716  0.09005248     0.16700
C13         C  0.93201794  0.44366942  0.44962563    -0.30700
N14         N  0.95398350  0.46303777  0.48740921     0.13500
C15         C  0.93753613  0.44476978  0.03183293    -0.30700
C16         C  0.90383525  0.29370769  0.46301392    -0.31000
N17         N  0.90956549  0.26824596  0.00574615     0.14000
H18         H  0.90878676  0.28304470  0.42456989     0.16700
C19         C  0.90313919  0.29448025  0.04666247    -0.31000
H20         H  0.91007064  0.28498530  0.08553932     0.16700
H21         H  0.94914568  0.45333186  0.06879888     0.16700
H22         H  0.77404487  0.40107352  0.42822324     0.16700
H23         H  0.93793625  0.45087452  0.40963803     0.16700
C24         C  0.86209353  0.35805995  0.20246425     0.30600
C25         C  0.85938493  0.35219818  0.30645501     0.30600
C26         C  0.86699603  0.31111071  0.22663950    -0.05600
C27         C  0.89903978  0.38442085  0.22927689    -0.06400
C28         C  0.81937500  0.37494172  0.22900237    -0.06300
C29         C  0.86512286  0.30837557  0.27932338    -0.05700
C30         C  0.89743990  0.38041604  0.28233055    -0.06400
C31         C  0.81790770  0.37216254  0.28176668    -0.06300
C32         C  0.87692139  0.26599279  0.29400060    -0.31700
N33         N  0.88665466  0.24257797  0.25189279     0.14800
C34         C  0.88074633  0.26998217  0.21045325    -0.31700
H35         H  0.88879586  0.26173514  0.17169539     0.16700
C36         C  0.93212576  0.40452210  0.30057755    -0.30700
N37         N  0.95408518  0.42483729  0.26110027     0.13500
C38         C  0.93518252  0.41205429  0.21731030    -0.30700
C39         C  0.77619059  0.38623271  0.29738051    -0.31000
N40         N  0.75228957  0.39785768  0.25560469     0.14000
H41         H  0.76392680  0.38640570  0.33624922     0.16700
C42         C  0.77883204  0.39101670  0.21388690    -0.31000
H43         H  0.76958845  0.39695723  0.17508592     0.16700
H44         H  0.94762827  0.42197986  0.18009084     0.16700
H45         H  0.88010387  0.25388555  0.33277475     0.16700
H46         H  0.94061465  0.40781012  0.33981029     0.16700
C47         C  0.35523008  0.13016398  0.04917774     0.30600
C48         C  0.37083752  0.13402597  0.44611831     0.30600
C49         C  0.36038544  0.17749465  0.02580900    -0.05600
C50         C  0.39302473  0.10408528  0.02154793    -0.06400
C51         C  0.31363151  0.11325752  0.02299837    -0.06300
C52         C  0.38239209  0.17697148  0.47208704    -0.05700
C53         C  0.40338464  0.10104749  0.47000041    -0.06400
C54         C  0.32603342  0.12110898  0.47227132    -0.06300
C55         C  0.39411982  0.21927440  0.45636120    -0.31700
N56         N  0.38945948  0.24318836  0.00136458     0.14800
C57         C  0.37900929  0.21629966  0.04228360    -0.31700
H58         H  0.38757049  0.22296952  0.08092991     0.16700
C59         C  0.43581609  0.07387150  0.45096611    -0.30700
N60         N  0.44698295  0.06145357  0.98822714     0.13500
C61         C  0.42620570  0.07326008  0.03232450    -0.30700
C62         C  0.28325659  0.11115444  0.45836654    -0.31000
N63         N  0.24791882  0.08980488  0.99670534     0.14000
H64         H  0.27081892  0.11246585  0.42030270     0.16700
C65         C  0.27253403  0.09715754  0.03838799    -0.31000
H66         H  0.26110490  0.09271765  0.07730931     0.16700
H67         H  0.43407848  0.05893649  0.06879152     0.16700
H68         H  0.39649569  0.23129789  0.41728753     0.16700
H69         H  0.44560033  0.07092076  0.41161218     0.16700
C70         C  0.35719177  0.11563023  0.30026212     0.30600
C71         C  0.36829729  0.11253485  0.19732874     0.30600
C72         C  0.36894589  0.16011609  0.27276106    -0.05600
C73         C  0.39351122  0.08420656  0.28114830    -0.06400
C74         C  0.31683640  0.10060010  0.27134112    -0.06300
C75         C  0.37536523  0.15840053  0.22037066    -0.05700
C76         C  0.39969901  0.08294226  0.22881811    -0.06400
C77         C  0.32188679  0.09847827  0.21888121    -0.06300
C78         C  0.39129253  0.19945132  0.20387277    -0.31700
N79         N  0.39353648  0.22649423  0.24439308     0.14800
C80         C  0.37909554  0.20263573  0.28636654    -0.31700
H81         H  0.37665111  0.21489831  0.32438895     0.16700
C82         C  0.43282389  0.05228897  0.21954543    -0.30700
N83         N  0.44633416  0.03479332  0.26489306     0.13500
C84         C  0.42171013  0.05337073  0.30238180    -0.30700
C85         C  0.28179813  0.08289378  0.20149647    -0.31000
N86         N  0.25328561  0.07603856  0.24209511     0.14000
H87         H  0.27436618  0.07599912  0.16265762     0.16700
C88         C  0.27462380  0.08719687  0.28464908    -0.31000
H89         H  0.26034768  0.08601058  0.32274350     0.16700
H90         H  0.42316199  0.04372326  0.34199636     0.16700
H91         H  0.40269492  0.20787428  0.16562786     0.16700
H92         H  0.44506063  0.04263098  0.18256748     0.16700
C93         C  0.60237820  0.87622248  0.05781365     0.30600
C94         C  0.62050005  0.88256077  0.45435562     0.30600
C95         C  0.58951419  0.83460434  0.02955461    -0.05600
C96         C  0.57217772  0.91156273  0.03400131    -0.06400
C97         C  0.64839286  0.88892102  0.03348090    -0.06300
C98         C  0.61332072  0.83485485  0.47655807    -0.05700
C99         C  0.58420481  0.90969830  0.48161846    -0.06400
C100        C  0.66269178  0.89662487  0.48150319    -0.06300
C101        C  0.60808236  0.79241552  0.45899606    -0.31700
N102        N  0.57197931  0.76840043  0.00021859     0.14800
C103        C  0.57740893  0.79179625  0.04310699    -0.31700
H104        H  0.57320700  0.77899937  0.08165420     0.16700
C105        C  0.55276379  0.94146350  0.46902991    -0.30700
N106        N  0.52508976  0.96488527  0.01187664     0.13500
C107        C  0.54166405  0.94150141  0.05177303    -0.30700
C108        C  0.70411080  0.91220701  0.46660812    -0.31000
N109        N  0.71535811  0.91473571  0.00710347     0.14000
H110        H  0.71576229  0.91714947  0.42778603     0.16700
C111        C  0.68919804  0.90454626  0.04879575    -0.31000
H112        H  0.69849725  0.91088619  0.08721097     0.16700
H113        H  0.53165348  0.94591836  0.09090810     0.16700
H114        H  0.61015561  0.78287953  0.41984231     0.16700
H115        H  0.54587609  0.95397787  0.43114697     0.16700
C116        C  0.62037738  0.86574365  0.20496355     0.30600
C117        C  0.60911211  0.86466560  0.30813179     0.30600
C118        C  0.66261043  0.87090039  0.23522382    -0.05600
C119        C  0.59068821  0.90253583  0.22647956    -0.06400
C120        C  0.59984172  0.82310849  0.22878812    -0.06300
C121        C  0.65767638  0.87020847  0.28783234    -0.05700
C122        C  0.58431115  0.90167735  0.27897641    -0.06400
C123        C  0.59396377  0.82249747  0.28129789    -0.06300
C124        C  0.69959221  0.87843921  0.30640446    -0.31700
N125        N  0.72882623  0.88482072  0.26640345     0.14800
C126        C  0.70609333  0.88036262  0.22300121    -0.31700
H127        H  0.71954705  0.88617690  0.18499414     0.16700
C128        C  0.55386299  0.93452113  0.29009819    -0.30700
N129        N  0.54219913  0.95535862  0.24571604     0.13500
C130        C  0.56518097  0.93652511  0.20708896    -0.30700
C131        C  0.57812220  0.78077932  0.29555504    -0.31000
N132        N  0.57443217  0.75599124  0.25330787     0.14000
H133        H  0.57026548  0.76940935  0.33399471     0.16700
C134        C  0.58789745  0.78182573  0.21238878    -0.31000
H135        H  0.59052561  0.77109428  0.17365500     0.16700
H136        H  0.56253888  0.94630505  0.16757569     0.16700
H137        H  0.70805270  0.88039215  0.34585985     0.16700
H138        H  0.54084140  0.94190245  0.32751814     0.16700
C139        C  0.12611487  0.62685589  0.44022893     0.30600
C140        C  0.13070916  0.62646239  0.04340184     0.30600
C141        C  0.11059277  0.66890658  0.46777803    -0.05600
C142        C  0.09908414  0.58983494  0.46945466    -0.06400
C143        C  0.17350783  0.62028740  0.46033292    -0.06300
C144        C  0.11060261  0.66895064  0.01932674    -0.05700
C145        C  0.10215359  0.58927064  0.02200833    -0.06400
C146        C  0.17406401  0.62157188  0.01310707    -0.06300
C147        C  0.09479278  0.70925140  0.03577034    -0.31700
N148        N  0.08833240  0.73463377  0.49682085     0.14800
C149        C  0.09448923  0.71044879  0.45419181    -0.31700
H150        H  0.08771361  0.72197585  0.41597287     0.16700
C151        C  0.07148680  0.55979901  0.04269330    -0.30700
N152        N  0.05156001  0.54002185  0.50502709     0.13500
C153        C  0.06433036  0.56087977  0.46047835    -0.30700
C154        C  0.21682339  0.61080746  0.02506616    -0.31000
N155        N  0.24409011  0.60611618  0.47986707     0.14000
H156        H  0.22896921  0.60479029  0.06293920     0.16700
C157        C  0.21570349  0.61211840  0.44059272    -0.31000
H158        H  0.22475275  0.61002570  0.40078879     0.16700
H159        H  0.04741565  0.55748324  0.42520727     0.16700
H160        H  0.09390193  0.71964131  0.07467973     0.16700
H161        H  0.06644701  0.55155400  0.08238200     0.16700
C162        C  0.10879251  0.60489970  0.29483064     0.30600
C163        C  0.10891110  0.61341434  0.19121303     0.30600
C164        C  0.15415856  0.59930191  0.26796378    -0.05600
C165        C  0.07963742  0.57121972  0.26741968    -0.06400
C166        C  0.09267101  0.64981450  0.27286252    -0.06300
C167        C  0.15472909  0.60286858  0.21494347    -0.05700
C168        C  0.07958930  0.57626236  0.21475406    -0.06400
C169        C  0.09300070  0.65370278  0.22034121    -0.06300
C170        C  0.19559150  0.58603045  0.19922891    -0.31700
N171        N  0.22008503  0.57491782  0.24066198     0.14800
C172        C  0.19443835  0.58251203  0.28271574    -0.31700
H173        H  0.20330945  0.57483928  0.32143901     0.16700
C174        C  0.05024007  0.54580259  0.19707866    -0.30700
N175        N  0.03325398  0.52126607  0.23672756     0.13500
C176        C  0.05069269  0.53656147  0.28027974    -0.30700
C177        C  0.07897830  0.69564770  0.20727743    -0.31000
N178        N  0.07072988  0.71829244  0.25038605     0.14000
H179        H  0.07544193  0.70836567  0.16881611     0.16700
C180        C  0.07857404  0.69017671  0.29075217    -0.31000
H181        H  0.07555417  0.69858998  0.33017689     0.16700
H182        H  0.04219446  0.52444128  0.31830491     0.16700
H183        H  0.20564793  0.57914690  0.16069005     0.16700
H184        H  0.04070811  0.54203388  0.15823836     0.16700
O185        O  0.96381631  0.06004591  0.04617127    -0.72400
O186        O  0.00348843  0.93157841  0.04251687    -0.73400
O187        O  0.04743024  0.01570587  0.04274355    -0.62000
O188        O  0.91943896  0.97583695  0.04615767    -0.70400
O189        O  0.93306353  0.98168498  0.46457806    -0.70000
O190        O  0.06050335  0.02281115  0.46233194    -0.61200
O191        O  0.01780657  0.93822119  0.46167524    -0.73700
O192        O  0.97624035  0.06569027  0.46486532    -0.72500
Cu193      Cu  0.98347359  0.99560574  0.04730972     1.04600
Cu194      Cu  0.99690052  0.00211497  0.46047879     1.04300
C195        C  0.95851653  0.08230001  0.00459365     0.93800
C196        C  0.01056440  0.91334199  0.99981504     0.92900
C197        C  0.06737510  0.02443702  0.00020227     0.85100
C198        C  0.89883863  0.97200859  0.00461981     0.91400
O199        O  0.96831791  0.04656761  0.29512019    -0.72400
O200        O  0.01247063  0.92105994  0.29752211    -0.73400
O201        O  0.05357479  0.00594835  0.29147775    -0.62000
O202        O  0.92781025  0.96140988  0.30161986    -0.70400
O203        O  0.92710351  0.95814194  0.21765954    -0.70000
O204        O  0.05060954  0.00959638  0.20744252    -0.61200
O205        O  0.01371354  0.92280093  0.21326611    -0.73700
O206        O  0.96321856  0.04530952  0.21133062    -0.72500
Cu207      Cu  0.99069905  0.98389394  0.29938624     1.04600
Cu208      Cu  0.98861148  0.98404170  0.20948199     1.04300
C209        C  0.95792435  0.06548273  0.25297251     0.93800
C210        C  0.01992331  0.90204707  0.25547435     0.92900
C211        C  0.07203923  0.01483215  0.24815218     0.85100
C212        C  0.90793920  0.95166303  0.26111373     0.91400
O213        O  0.55640698  0.47651688  0.04636913    -0.72400
O214        O  0.43303852  0.52538951  0.03289331    -0.73400
O215        O  0.46989387  0.43867357  0.04178990    -0.62000
O216        O  0.51850814  0.56238772  0.03801554    -0.70400
O217        O  0.53240807  0.56450955  0.45126413    -0.70000
O218        O  0.47914739  0.44219709  0.45247426    -0.61200
O219        O  0.44496596  0.52991040  0.44391865    -0.73700
O220        O  0.56612674  0.47625980  0.45915329    -0.72500
Cu221      Cu  0.49424521  0.50069561  0.04266919     1.04600
Cu222      Cu  0.50597014  0.50317575  0.44874031     1.04300
C223        C  0.57919255  0.46874377  0.00608496     0.93800
C224        C  0.41651305  0.53192200  0.98904051     0.92900
C225        C  0.46629124  0.41787286  0.00052151     0.85100
C226        C  0.52748314  0.58240665  0.99561088     0.91400
O227        O  0.54894392  0.46857048  0.29197510    -0.72400
O228        O  0.42090729  0.50801924  0.28626661    -0.73400
O229        O  0.46522474  0.42497154  0.28723339    -0.62000
O230        O  0.50496804  0.55240088  0.29059374    -0.70400
O231        O  0.50965534  0.55511005  0.20647645    -0.70000
O232        O  0.46849310  0.42795798  0.20307244    -0.61200
O233        O  0.42546001  0.51197064  0.20218125    -0.73700
O234        O  0.55293988  0.47033041  0.20786605    -0.72500
Cu235      Cu  0.48485167  0.48847172  0.29191927     1.04600
Cu236      Cu  0.48937232  0.49152028  0.20197829     1.04300
C237        C  0.57105373  0.46255509  0.25070993     0.93800
C238        C  0.40277862  0.51582826  0.24348544     0.92900
C239        C  0.46015410  0.40639215  0.24473590     0.85100
C240        C  0.51386992  0.57391017  0.24898508     0.91400
C241        C  0.29306558  0.56252563  0.19675950    -0.12800
C242        C  0.26513208  0.55753125  0.24028509     0.09400
C243        C  0.28281575  0.53688998  0.28411173    -0.12800
C244        C  0.32730239  0.52328532  0.28499143    -0.12800
C245        C  0.35528297  0.52926898  0.24189317     0.09400
C246        C  0.33744417  0.54829381  0.19748029    -0.12800
H247        H  0.28119414  0.57849103  0.16237016     0.13300
H248        H  0.26253436  0.53115892  0.31807322     0.13300
H249        H  0.33976902  0.50791754  0.31949885     0.13300
H250        H  0.35811173  0.55320306  0.16352475     0.13300
C251        C  0.04267857  0.78314152  0.29784346    -0.12800
C252        C  0.05845387  0.76468283  0.25233510     0.09400
C253        C  0.06264661  0.79262629  0.20859421    -0.12800
C254        C  0.05061467  0.83725642  0.20996715    -0.12800
C255        C  0.03471874  0.85541668  0.25523705     0.09400
C256        C  0.03123552  0.82815430  0.29933026    -0.12800
H257        H  0.03852218  0.76297193  0.33225577     0.13300
H258        H  0.07557990  0.78054946  0.17299859     0.13300
H259        H  0.05386864  0.85758674  0.17542238     0.13300
H260        H  0.01873615  0.84134299  0.33471516     0.13300
C261        C  0.10890849  0.59940272  0.35215539    -0.15900
C262        C  0.12516624  0.63061852  0.38250851    -0.31100
H263        H  0.09762102  0.56782013  0.36789219     0.13100
H264        H  0.14048694  0.66017811  0.36494109     0.13700
C265        C  0.13712041  0.62532905  0.10042894    -0.15900
C266        C  0.10346234  0.62014420  0.13429440    -0.31100
H267        H  0.17052598  0.62815351  0.11388904     0.13100
H268        H  0.06962731  0.62171617  0.12077735     0.13700
C269        C  0.31409240  0.59850920  0.02069751    -0.12800
C270        C  0.29057268  0.59399403  0.47725143     0.09400
C271        C  0.30871482  0.57149926  0.43548534    -0.12800
C272        C  0.35243005  0.55520760  0.43657441    -0.12800
C273        C  0.37204668  0.55208881  0.98497647     0.09400
C274        C  0.35625204  0.57960510  0.02340067    -0.12800
H275        H  0.30314424  0.61981529  0.05093693     0.13300
H276        H  0.28872682  0.56492468  0.40295823     0.13300
H277        H  0.36528531  0.53685853  0.40467323     0.13300
H278        H  0.37661304  0.58668338  0.05557325     0.13300
C279        C  0.04354267  0.79544259  0.04076176    -0.12800
C280        C  0.07213845  0.78014319  0.49849318     0.09400
C281        C  0.07488269  0.80875398  0.45515699    -0.12800
C282        C  0.05890697  0.85254907  0.45662162    -0.12800
C283        C  0.02772741  0.86687196  0.99829163     0.09400
C284        C  0.02630557  0.83880620  0.04196576    -0.12800
H285        H  0.04105225  0.77471861  0.07497486     0.13300
H286        H  0.08990346  0.79765415  0.42006531     0.13300
H287        H  0.06183338  0.87356547  0.42259165     0.13300
H288        H  0.01160873  0.85028787  0.07714907     0.13300
C289        C  0.56029604  0.68225049  0.29601786    -0.12800
C290        C  0.55961191  0.71012011  0.25211175     0.09400
C291        C  0.54393466  0.69232364  0.20700456    -0.12800
C292        C  0.52928696  0.64812543  0.20592163    -0.12800
C293        C  0.52944094  0.62069851  0.25002344     0.09400
C294        C  0.54511082  0.63823821  0.29504841    -0.12800
H295        H  0.57310811  0.69409941  0.33111120     0.13300
H296        H  0.54227715  0.71262827  0.17253006     0.13300
H297        H  0.51730423  0.63559508  0.17062414     0.13300
H298        H  0.54627872  0.61764392  0.32940168     0.13300
C299        C  0.79171779  0.92051378  0.30946982    -0.12800
C300        C  0.77498711  0.89811232  0.26782935     0.09400
C301        C  0.80345224  0.89151356  0.22549313    -0.12800
C302        C  0.84646154  0.90891623  0.22351546    -0.12800
C303        C  0.86267105  0.93242505  0.26434419     0.09400
C304        C  0.83529921  0.93724861  0.30784600    -0.12800
H305        H  0.77082192  0.92642428  0.34252625     0.13300
H306        H  0.79245926  0.87324179  0.19334552     0.13300
H307        H  0.86708990  0.90387502  0.18991633     0.13300
H308        H  0.84712813  0.95509667  0.33998586     0.13300
C309        C  0.62301945  0.88914113  0.39696452    -0.15900
C310        C  0.60099727  0.86329030  0.36510841    -0.31100
H311        H  0.64508530  0.91488767  0.38125673     0.13100
H312        H  0.57651484  0.83975139  0.38038608     0.13700
C313        C  0.59550620  0.87094607  0.11494001    -0.15900
C314        C  0.62841652  0.86637823  0.14803690    -0.31100
H315        H  0.56134811  0.87033368  0.12947277     0.13100
H316        H  0.66214196  0.86250662  0.13411249     0.13700
C317        C  0.56549954  0.69350034  0.04196355    -0.12800
C318        C  0.56181459  0.72137182  0.99833853     0.09400
C319        C  0.54835513  0.70223428  0.95294858    -0.12800
C320        C  0.53855840  0.65675770  0.95148606    -0.12800
C321        C  0.54142519  0.62952018  0.99545819     0.09400
C322        C  0.55513295  0.64833168  0.04059535    -0.12800
H323        H  0.57659682  0.70616146  0.07744480     0.13300
H324        H  0.54448920  0.72226732  0.91861484     0.13300
H325        H  0.52746834  0.64320297  0.91632449     0.13300
H326        H  0.55779436  0.62810469  0.07510724     0.13300
C327        C  0.78762849  0.92319444  0.04991469    -0.12800
C328        C  0.76089736  0.93072776  0.00728227     0.09400
C329        C  0.78001549  0.95299956  0.96428942    -0.12800
C330        C  0.82468890  0.96629378  0.96346058    -0.12800
C331        C  0.85134018  0.95829685  0.00582788     0.09400
C332        C  0.83216425  0.93707702  0.04929512    -0.12800
H333        H  0.77456955  0.90568355  0.08350678     0.13300
H334        H  0.76056383  0.96039450  0.93111240     0.13300
H335        H  0.83830671  0.98317050  0.92967087     0.13300
H336        H  0.85186838  0.93034698  0.08254470     0.13300
C337        C  0.47985069  0.00139167  0.27388210    -0.15900
C338        C  0.50954951  0.98978664  0.23776892    -0.31100
H339        H  0.48112960  0.98580933  0.31149040     0.13100
H340        H  0.50834796  0.00568999  0.20031957     0.13700
C341        C  0.41688115  0.29645590  0.19821403    -0.12800
C342        C  0.41086374  0.27153262  0.24399374     0.09400
C343        C  0.42239084  0.29145546  0.28962285    -0.12800
C344        C  0.43843338  0.33502481  0.28963883    -0.12800
C345        C  0.44407760  0.35984863  0.24404235     0.09400
C346        C  0.43349268  0.34001640  0.19824043    -0.12800
H347        H  0.40833227  0.28270204  0.16230203     0.13300
H348        H  0.41954256  0.27357881  0.32568434     0.13300
H349        H  0.44654892  0.34920538  0.32556588     0.13300
H350        H  0.43755598  0.35833899  0.16247304     0.13300
C351        C  0.18086876  0.06720359  0.20014938    -0.12800
C352        C  0.20833546  0.05921529  0.24186366     0.09400
C353        C  0.19064409  0.03593469  0.28488086    -0.12800
C354        C  0.14639383  0.02203530  0.28683054    -0.12800
C355        C  0.11875863  0.03035531  0.24548471     0.09400
C356        C  0.13645433  0.05272857  0.20187347    -0.12800
H357        H  0.19341427  0.08543074  0.16675282     0.13300
H358        H  0.21107783  0.02823115  0.31722893     0.13300
H359        H  0.13394848  0.00426134  0.32061838     0.13300
H360        H  0.11578120  0.05963743  0.16947483     0.13300
C361        C  0.49174651  0.99877675  0.01809950    -0.15900
C362        C  0.48110671  0.02826954  0.98108760    -0.31100
H363        H  0.47528051  0.00041995  0.05499313     0.13100
H364        H  0.50744643  0.01879472  0.44686796     0.13700
C365        C  0.35005416  0.11460149  0.35727729    -0.15900
C366        C  0.37539839  0.13736406  0.38871756    -0.31100
H367        H  0.32643599  0.09051967  0.37296586     0.13100
H368        H  0.40379755  0.15582389  0.37295298     0.13700
C369        C  0.37598063  0.11030159  0.14050877    -0.15900
C370        C  0.34935896  0.13051957  0.10680498    -0.31100
H371        H  0.40461421  0.09245376  0.12792960     0.13100
H372        H  0.32120641  0.14931881  0.12138450     0.13700
C373        C  0.40344721  0.31386389  0.04377307    -0.12800
C374        C  0.41072796  0.28611003  0.00241141     0.09400
C375        C  0.43778742  0.30157644  0.96131318    -0.12800
C376        C  0.45610524  0.34427486  0.96092143    -0.12800
C377        C  0.44821301  0.37221185  0.00188432     0.09400
C378        C  0.42213678  0.35647887  0.04356273    -0.12800
H379        H  0.38221028  0.30313841  0.07549352     0.13300
H380        H  0.44490885  0.28072596  0.92935060     0.13300
H381        H  0.47650490  0.35541658  0.92856476     0.13300
H382        H  0.41510657  0.37763917  0.07536055     0.13300
C383        C  0.18414542  0.05149666  0.04114519    -0.12800
C384        C  0.20262643  0.07313773  0.99732922     0.09400
C385        C  0.17588516  0.07820737  0.95436189    -0.12800
C386        C  0.13221262  0.06195157  0.95515852    -0.12800
C387        C  0.11391844  0.04074582  0.99908600     0.09400
C388        C  0.14029035  0.03587359  0.04212491    -0.12800
H389        H  0.20352595  0.04602172  0.07478010     0.13300
H390        H  0.18827402  0.09517514  0.92016090     0.13300
H391        H  0.11250769  0.06661808  0.92152328     0.13300
H392        H  0.12719096  0.01948373  0.07648248     0.13300
C393        C  0.00060475  0.48684194  0.23043100    -0.15900
C394        C  0.98904941  0.45704003  0.26732570    -0.31100
H395        H  0.98491446  0.48533873  0.19385839     0.13100
H396        H  0.00434120  0.45873867  0.30412048     0.13700
C397        C  0.92525518  0.17996838  0.29520169    -0.12800
C398        C  0.90439913  0.19798004  0.25191989     0.09400
C399        C  0.90138475  0.17173386  0.20885544    -0.12800
C400        C  0.91896714  0.12868406  0.20905247    -0.12800
C401        C  0.93954778  0.11091788  0.25244577     0.09400
C402        C  0.94229430  0.13687211  0.29555896    -0.12800
H403        H  0.92924136  0.19921441  0.32879574     0.13300
H404        H  0.88493773  0.18417022  0.17525642     0.13300
H405        H  0.91592355  0.10906454  0.17551350     0.13300
H406        H  0.95818122  0.12410455  0.32947454     0.13300
C407        C  0.68540832  0.42988044  0.29898031    -0.12800
C408        C  0.70657722  0.41361267  0.25495337     0.09400
C409        C  0.68214685  0.41339158  0.20991037    -0.12800
C410        C  0.63856041  0.42960958  0.20860668    -0.12800
C411        C  0.61764497  0.44597256  0.25242700     0.09400
C412        C  0.64145377  0.44560339  0.29776440    -0.12800
H413        H  0.70279097  0.43108192  0.33434817     0.13300
H414        H  0.69626187  0.40030497  0.17534812     0.13300
H415        H  0.62100800  0.42878955  0.17323810     0.13300
H416        H  0.62627533  0.45795198  0.33228068     0.13300
C417        C  0.01588877  0.50854573  0.51457386    -0.15900
C418        C  0.98898646  0.49521932  0.47799812    -0.31100
H419        H  0.99962428  0.50659656  0.05400411     0.13100
H420        H  0.99416937  0.50777790  0.43936981     0.13700
C421        C  0.85877787  0.34713506  0.36387821    -0.15900
C422        C  0.86602050  0.38167548  0.39363683    -0.31100
H423        H  0.85407384  0.31425173  0.38092242     0.13100
H424        H  0.86685214  0.41496863  0.37635018     0.13700
C425        C  0.88035086  0.38377962  0.11096990    -0.15900
C426        C  0.85850706  0.35694980  0.14477150    -0.31100
H427        H  0.90109966  0.40989119  0.12404176     0.13100
H428        H  0.83538310  0.33282700  0.13027200     0.13700
C429        C  0.95020353  0.15698843  0.96095211    -0.12800
C430        C  0.94641138  0.13022723  0.00544076     0.09400
C431        C  0.96121970  0.15823225  0.55023422    -0.12800
C432        C  0.94809548  0.20311343  0.54956639    -0.12800
C433        C  0.92367532  0.22203233  0.00627517     0.09400
C434        C  0.93940167  0.20222755  0.96143358    -0.12800
H435        H  0.96197697  0.14306435  0.92566776     0.13300
H436        H  0.97630171  0.14417646  0.58401229     0.13300
H437        H  0.95369261  0.22226112  0.58292418     0.13300
H438        H  0.94371192  0.22145219  0.92636141     0.13300
C439        C  0.68692264  0.41267882  0.97028096    -0.12800
C440        C  0.71376224  0.42093424  0.01207056     0.09400
C441        C  0.69617482  0.44044772  0.55158606    -0.10800
C442        C  0.65214055  0.45550335  0.55014674    -0.12800
C443        C  0.62481261  0.45108125  0.00956902     0.09400
C444        C  0.64332749  0.42806072  0.96876835    -0.12800
H445        H  0.69945622  0.39442498  0.93824596     0.13300
H446        H  0.71584543  0.44816884  0.58401711     0.13300
H447        H  0.63885214  0.47421747  0.58157784     0.13300
H448        H  0.62400744  0.42180429  0.93551673     0.13300
C449        C  0.87700729  0.38022084  0.55396926     0.30600
C450        C  0.86883254  0.37771116  0.95062145     0.30600
C451        C  0.83050716  0.38860917  0.53229979    -0.05600
C452        C  0.90614009  0.41413856  0.52317423    -0.06400
C453        C  0.89067993  0.33585409  0.52985365    -0.06300
C454        C  0.82642120  0.38891203  0.98029029    -0.05700
C455        C  0.90181331  0.41178074  0.97011351    -0.06400
C456        C  0.88432244  0.33418386  0.97741741    -0.06300
C457        C  0.78410648  0.40031218  0.96758689    -0.31700
N458        N  0.76118798  0.40479302  0.50954138     0.14800
C459        C  0.78848560  0.39971415  0.54993913    -0.31700
H460        H  0.77877684  0.40416891  0.58906144     0.16700
C461        C  0.93096563  0.44269228  0.94882664    -0.30700
N462        N  0.95282269  0.46250076  0.98650273     0.13500
C463        C  0.93833469  0.44546489  0.53270506    -0.30700
C464        C  0.89888746  0.29273941  0.96350894    -0.31000
N465        N  0.91398646  0.26898697  0.50540599     0.14000
H466        H  0.90206697  0.28126762  0.92528186     0.16700
C467        C  0.90644536  0.29491778  0.54635878    -0.31000
H468        H  0.91154157  0.28489692  0.58546614     0.16700
H469        H  0.94982900  0.45403136  0.56971722     0.16700
H470        H  0.77230553  0.40371846  0.92926057     0.16700
H471        H  0.93634313  0.45022294  0.90879988     0.16700
C472        C  0.86250556  0.35583014  0.70216457     0.30600
C473        C  0.85892832  0.34962973  0.80614464     0.30600
C474        C  0.86716839  0.30874607  0.72601661    -0.05600
C475        C  0.89915780  0.38198553  0.72952559    -0.06400
C476        C  0.81957325  0.37246593  0.72824160    -0.06300
C477        C  0.86510817  0.30558344  0.77889490    -0.05700
C478        C  0.89710534  0.37799985  0.78253891    -0.06400
C479        C  0.81769818  0.36949360  0.78094817    -0.06300
C480        C  0.88214267  0.26465804  0.79293025    -0.31700
N481        N  0.89414958  0.24253292  0.75045136     0.14800
C482        C  0.88575442  0.26964219  0.70953678    -0.31700
H483        H  0.89567560  0.26301218  0.67085007     0.16700
C484        C  0.93185508  0.40191129  0.80106743    -0.30700
N485        N  0.95433377  0.42191047  0.76167196     0.13500
C486        C  0.93564712  0.40909771  0.71778437    -0.30700
C487        C  0.77595377  0.38356809  0.79625463    -0.31000
N488        N  0.75244906  0.39543127  0.75429620     0.14000
H489        H  0.76345097  0.38373978  0.83504283     0.16700
C490        C  0.77920127  0.38869823  0.71277219    -0.31000
H491        H  0.77022753  0.39503369  0.67393349     0.16700
H492        H  0.94855685  0.41843391  0.68052327     0.16700
H493        H  0.88756560  0.25310111  0.83152385     0.16700
H494        H  0.94007894  0.40513964  0.84041346     0.16700
C495        C  0.37053830  0.12967642  0.55012972     0.30600
C496        C  0.35609762  0.13716314  0.94548124     0.30600
C497        C  0.38245750  0.17507208  0.52473964    -0.05600
C498        C  0.40375069  0.09771489  0.52303033    -0.06400
C499        C  0.32628137  0.11852146  0.52510885    -0.06300
C500        C  0.36053088  0.18092210  0.97293234    -0.05700
C501        C  0.39365322  0.10922518  0.96865217    -0.06400
C502        C  0.31407445  0.11643062  0.97035996    -0.06300
C503        C  0.37895647  0.22142326  0.95888848    -0.31700
N504        N  0.40188380  0.24358262  0.49791959     0.14800
C505        C  0.39467082  0.21675046  0.53997981    -0.31700
H506        H  0.39901409  0.22630758  0.57875645     0.16700
C507        C  0.42800988  0.08418681  0.94951247    -0.30700
N508        N  0.45525217  0.05210045  0.48992013     0.13500
C509        C  0.43684316  0.06665370  0.53413239    -0.30700
C510        C  0.27328289  0.10173651  0.95484667    -0.31000
N511        N  0.25829921  0.10021832  0.50070362     0.14000
H512        H  0.26304096  0.10031916  0.91593183     0.16700
C513        C  0.28437152  0.10541604  0.54165359    -0.31000
H514        H  0.27423677  0.09893226  0.58064828     0.16700
H515        H  0.44848391  0.05600010  0.57070473     0.16700
H516        H  0.38645062  0.23299213  0.92043473     0.16700
H517        H  0.43789514  0.08154984  0.91014913     0.16700
C518        C  0.37163275  0.11117673  0.80144155     0.30600
C519        C  0.38160656  0.10955556  0.69830886     0.30600
C520        C  0.38760897  0.15521968  0.77505460    -0.05600
C521        C  0.40555521  0.07768568  0.78114567    -0.06400
C522        C  0.33010936  0.09995722  0.77243856    -0.06300
C523        C  0.39238488  0.15438731  0.72230087    -0.05700
C524        C  0.41100272  0.07690127  0.72873842    -0.06400
C525        C  0.33467792  0.09896109  0.72001027    -0.06300
C526        C  0.40809749  0.19562582  0.70585646    -0.31700
N527        N  0.41334676  0.22161769  0.74691260     0.14800
C528        C  0.40163437  0.19667809  0.78918895    -0.31700
H529        H  0.40387158  0.20758756  0.82741999     0.16700
C530        C  0.44364783  0.04583502  0.71852360    -0.30700
N531        N  0.45765548  0.02779115  0.76342340     0.13500
C532        C  0.43419819  0.04674651  0.80162383    -0.30700
C533        C  0.29389290  0.08633503  0.70224587    -0.31000
N534        N  0.26500597  0.08006540  0.74254689     0.14000
H535        H  0.28615532  0.08166717  0.66306810     0.16700
C536        C  0.28735084  0.08810778  0.78555015    -0.31000
H537        H  0.27416313  0.08425022  0.82392283     0.16700
H538        H  0.43805160  0.03847476  0.84143546     0.16700
H539        H  0.41595453  0.20526587  0.66692325     0.16700
H540        H  0.45613486  0.03728300  0.68129111     0.16700
C541        C  0.61725006  0.87374250  0.55796973     0.30600
C542        C  0.60552692  0.88361391  0.95407995     0.30600
C543        C  0.61089789  0.83100774  0.52920250    -0.05600
C544        C  0.58259754  0.90457805  0.53423087    -0.06400
C545        C  0.66141495  0.89278436  0.53440023    -0.06300
C546        C  0.59093927  0.83803166  0.97693212    -0.05700
C547        C  0.57374028  0.91595469  0.98131245    -0.06400
C548        C  0.64965127  0.89193187  0.98046431    -0.06300
C549        C  0.57981480  0.79674604  0.95962243    -0.31700
N550        N  0.60034930  0.76375509  0.49924223     0.14800
C551        C  0.60239617  0.78729721  0.54236297    -0.31700
H552        H  0.59665732  0.77420074  0.58056503     0.16700
C553        C  0.54420807  0.94953631  0.96832424    -0.30700
N554        N  0.53228718  0.95493306  0.51273556     0.13500
C555        C  0.54992497  0.93208913  0.55237783    -0.30700
C556        C  0.69103155  0.90743528  0.96524077    -0.31000
N557        N  0.72840162  0.91902494  0.50859784     0.14000
H558        H  0.70199871  0.91373250  0.92635281     0.16700
C559        C  0.70221626  0.90804699  0.55011081    -0.31000
H560        H  0.71195480  0.91190447  0.58885234     0.16700
H561        H  0.54020135  0.93626153  0.59163636     0.16700
H562        H  0.57875091  0.78791181  0.92034911     0.16700
H563        H  0.53673868  0.96115528  0.93024362     0.16700
C564        C  0.63608065  0.86226280  0.70447942     0.30600
C565        C  0.62598471  0.86140485  0.80799716     0.30600
C566        C  0.67836116  0.86772622  0.73402643    -0.05600
C567        C  0.60643709  0.89907528  0.72606197    -0.06400
C568        C  0.61587720  0.81971379  0.72880928    -0.06300
C569        C  0.67380208  0.86753215  0.78651222    -0.05700
C570        C  0.59982854  0.89824239  0.77874740    -0.06400
C571        C  0.61070326  0.81910808  0.78145108    -0.06300
C572        C  0.71523612  0.87765917  0.80473898    -0.31700
N573        N  0.74409120  0.88399594  0.76441275     0.14800
C574        C  0.72142170  0.87814236  0.72127857    -0.31700
H575        H  0.73448275  0.88408379  0.68310767     0.16700
C576        C  0.56534638  0.92781389  0.78805673    -0.30700
N577        N  0.55356112  0.94802799  0.74341600     0.13500
C578        C  0.57883541  0.93090320  0.70564851    -0.30700
C579        C  0.59295404  0.77814270  0.79558624    -0.31000
N580        N  0.58743921  0.75386218  0.75320078     0.14000
H581        H  0.58429104  0.76723721  0.83395210     0.16700
C582        C  0.60175305  0.77922611  0.71229054    -0.31000
H583        H  0.60276542  0.76895153  0.67338566     0.16700
H584        H  0.57597507  0.93989929  0.66602457     0.16700
H585        H  0.72326267  0.88147231  0.84412899     0.16700
H586        H  0.54801962  0.93221880  0.82376153     0.16700
C587        C  0.12374640  0.62729824  0.93997853     0.30600
C588        C  0.13383250  0.62452025  0.54361883     0.30600
C589        C  0.10717966  0.66945599  0.96665995    -0.05600
C590        C  0.09710665  0.59024492  0.96939372    -0.06400
C591        C  0.17102893  0.62168477  0.96068029    -0.06300
C592        C  0.11434556  0.66767367  0.52039288    -0.05700
C593        C  0.10461943  0.58814674  0.52190150    -0.06400
C594        C  0.17695373  0.61927540  0.51277521    -0.06300
C595        C  0.10059796  0.70853892  0.53739709    -0.31700
N596        N  0.08158562  0.73435222  0.99481232     0.14800
C597        C  0.08914876  0.71005282  0.95250932    -0.31700
H598        H  0.08173861  0.72074771  0.91415397     0.16700
C599        C  0.07644121  0.55613739  0.54235680    -0.30700
N600        N  0.04617525  0.54428852  0.00546443     0.13500
C601        C  0.06035981  0.56376870  0.96072780    -0.30700
C602        C  0.22027431  0.61022049  0.52390933    -0.31000
N603        N  0.24064436  0.60462243  0.98153788     0.14000
H604        H  0.23297853  0.60474294  0.56160958     0.16700
C605        C  0.21290676  0.61099032  0.94176650    -0.31000
H606        H  0.22204206  0.60678279  0.90229799     0.16700
H607        H  0.04282612  0.56172970  0.92563099     0.16700
H608        H  0.10077688  0.71873929  0.57639575     0.16700
H609        H  0.07284912  0.54645842  0.58166061     0.16700
C610        C  0.10844541  0.60248840  0.79497019     0.30600
C611        C  0.11008525  0.61046918  0.69124716     0.30600
C612        C  0.15437788  0.59752953  0.76893928    -0.05600
C613        C  0.08028080  0.56816452  0.76735400    -0.06400
C614        C  0.09173141  0.64690756  0.77238603    -0.06300
C615        C  0.15562376  0.60079273  0.71593036    -0.05700
C616        C  0.08095380  0.57279472  0.71459686    -0.06400
C617        C  0.09304219  0.65080693  0.71981639    -0.06300
C618        C  0.19742420  0.58585147  0.70096814    -0.31700
N619        N  0.22184847  0.57612462  0.74280976     0.14800
C620        C  0.19530137  0.58279518  0.78443751    -0.31700
H621        H  0.20410999  0.57582984  0.82330445     0.16700
C622        C  0.05194865  0.54185848  0.69681453    -0.30700
N623        N  0.03442113  0.51771614  0.73667954     0.13500
C624        C  0.05122537  0.53360134  0.78023471    -0.30700
C625        C  0.07910496  0.69295577  0.70660528    -0.31000
N626        N  0.06922452  0.71502682  0.74972163     0.14000
H627        H  0.07808305  0.70696942  0.66839437     0.16700
C628        C  0.07641308  0.68689060  0.79011434    -0.31000
H629        H  0.07127566  0.69500529  0.82946845     0.16700
H630        H  0.04198748  0.52211299  0.81832710     0.16700
H631        H  0.20834566  0.57915122  0.66264777     0.16700
H632        H  0.04303842  0.53768559  0.65800735     0.16700
O633        O  0.97662913  0.06316810  0.54899408    -0.72400
O634        O  0.01671695  0.93445297  0.54578579    -0.73400
O635        O  0.06014696  0.01935730  0.54649134    -0.62000
O636        O  0.93264436  0.97863050  0.54874010    -0.70400
O637        O  0.91905863  0.98004162  0.96205290    -0.70000
O638        O  0.04715433  0.01958646  0.95860311    -0.61200
O639        O  0.00363866  0.93533762  0.95841585    -0.73700
O640        O  0.96423738  0.06350542  0.96203923    -0.72500
Cu641      Cu  0.99651361  0.99868160  0.55042941     1.04600
Cu642      Cu  0.98339186  0.99958970  0.95738100     1.04300
C643        C  0.97018589  0.08476291  0.50721823     0.93800
C644        C  0.02401215  0.91611933  0.50313945     0.92900
C645        C  0.08027795  0.02824560  0.50413538     0.85100
C646        C  0.91252240  0.97408334  0.50700993     0.91400
O647        O  0.98097191  0.04830085  0.79083611    -0.72400
O648        O  0.02554123  0.92221701  0.79347601    -0.73400
O649        O  0.06594108  0.00841699  0.78766730    -0.62000
O650        O  0.94121088  0.96299293  0.79741143    -0.70400
O651        O  0.93931750  0.96231337  0.71326688    -0.70000
O652        O  0.06476202  0.00773777  0.70354426    -0.61200
O653        O  0.02303033  0.92231782  0.70939509    -0.73700
O654        O  0.97884070  0.04794849  0.70677748    -0.72500
Cu655      Cu  0.00368115  0.98556419  0.79525305     1.04600
Cu656      Cu  0.00159759  0.98517692  0.70528527     1.04300
C657        C  0.97223081  0.06782489  0.74847281     0.93800
C658        C  0.02950126  0.90181087  0.75171109     0.92900
C659        C  0.08504160  0.01566637  0.74441211     0.85100
C660        C  0.92078398  0.95484103  0.75683220     0.91400
O661        O  0.55865382  0.47628482  0.54314460    -0.72400
O662        O  0.43872372  0.53259388  0.52782596    -0.73400
O663        O  0.47036218  0.44376916  0.53621299    -0.62000
O664        O  0.52670822  0.56422776  0.53538028    -0.70400
O665        O  0.52327318  0.56230560  0.95388291    -0.70000
O666        O  0.47790352  0.43643676  0.95798491    -0.61200
O667        O  0.43854332  0.52199805  0.94895675    -0.73700
O668        O  0.56279153  0.47609204  0.96232464    -0.72500
Cu669      Cu  0.49825290  0.50423166  0.53853664     1.04600
Cu670      Cu  0.50097702  0.49907144  0.95282135     1.04300
C671        C  0.58151571  0.46770139  0.50316783     0.93800
C672        C  0.42281144  0.54013515  0.48382476     0.92900
C673        C  0.46641591  0.42358779  0.49457630     0.85100
C674        C  0.53813107  0.58361656  0.49333304     0.91400
O675        O  0.55149003  0.47013243  0.79086447    -0.72400
O676        O  0.42364039  0.50995328  0.78784001    -0.73400
O677        O  0.46833185  0.42636163  0.78872453    -0.62000
O678        O  0.50807125  0.55398891  0.78978014    -0.70400
O679        O  0.51167162  0.55660187  0.70563799    -0.70000
O680        O  0.47063321  0.42891424  0.70455609    -0.61200
O681        O  0.42712757  0.51338753  0.70371394    -0.73700
O682        O  0.55456790  0.47159744  0.70670757    -0.72500
Cu683      Cu  0.48766544  0.49017128  0.79217766     1.04600
Cu684      Cu  0.49104285  0.49282008  0.70221063     1.04300
C685        C  0.57298530  0.46367744  0.74931318     0.93800
C686        C  0.40503843  0.51779122  0.74534203     0.92900
C687        C  0.46387091  0.40717771  0.74648350     0.85100
C688        C  0.51691919  0.57532008  0.74804626     0.91400
C689        C  0.29558276  0.56595819  0.69967394    -0.12800
C690        C  0.26744746  0.56016837  0.74294374     0.09400
C691        C  0.28517841  0.53938456  0.78664738    -0.12800
C692        C  0.32971796  0.52577383  0.78741820    -0.12800
C693        C  0.35769335  0.53194291  0.74432555     0.09400
C694        C  0.33996281  0.55172559  0.70026752    -0.12800
H695        H  0.28374312  0.58224924  0.66545002     0.13300
H696        H  0.26474217  0.53319829  0.82040007     0.13300
H697        H  0.34215556  0.50995716  0.82167628     0.13300
H698        H  0.36066383  0.55700052  0.66640037     0.13300
C699        C  0.06725264  0.78654905  0.79419497    -0.12800
C700        C  0.05710266  0.76137832  0.75176081     0.09400
C701        C  0.03698054  0.78278561  0.71010742    -0.12800
C702        C  0.02862305  0.82844027  0.71009846    -0.12800
C703        C  0.03962571  0.85372114  0.75200854     0.09400
C704        C  0.05834472  0.83225445  0.79442933    -0.12800
H705        H  0.08322759  0.77127391  0.82663598     0.13300
H706        H  0.02769369  0.76429141  0.67737326     0.13300
H707        H  0.01303302  0.84388442  0.67741326     0.13300
H708        H  0.06686320  0.85093201  0.82734305     0.13300
C709        C  0.10769495  0.59787808  0.85241321    -0.15900
C710        C  0.12351822  0.62979464  0.88220826    -0.31100
H711        H  0.09543487  0.56684967  0.86882342     0.13100
H712        H  0.13913417  0.65897983  0.86412235     0.13700
C713        C  0.13982085  0.62266739  0.60072112    -0.15900
C714        C  0.10572220  0.61690129  0.63410922    -0.31100
H715        H  0.17312963  0.62582793  0.61440973     0.13100
H716        H  0.07206805  0.61797999  0.61991971     0.13700
C717        C  0.31791688  0.60173941  0.51872232    -0.12800
C718        C  0.28616478  0.58952286  0.98012399     0.09400
C719        C  0.30248320  0.56296426  0.94078270    -0.12800
C720        C  0.34528163  0.54463213  0.94304442    -0.12800
C721        C  0.37838434  0.56064623  0.47966838     0.09400
C722        C  0.36097280  0.58481937  0.52019055    -0.12800
H723        H  0.30584149  0.62026573  0.55080355     0.13300
H724        H  0.28173394  0.55511742  0.90929432     0.13300
H725        H  0.35694889  0.52356465  0.91288412     0.13300
H726        H  0.38054593  0.59034091  0.55341757     0.13300
C727        C  0.05306006  0.79691097  0.54340599    -0.12800
C728        C  0.06320450  0.77905579  0.99596275     0.09400
C729        C  0.06469781  0.80738326  0.95234476    -0.12800
C730        C  0.04699146  0.85053323  0.95343685    -0.12800
C731        C  0.04014729  0.86926038  0.50157447     0.09400
C732        C  0.03747314  0.84090038  0.54496202    -0.12800
H733        H  0.04960521  0.77595279  0.57735083     0.13300
H734        H  0.08025034  0.79664485  0.91742604     0.13300
H735        H  0.04917311  0.87147340  0.91930255     0.13300
H736        H  0.02291510  0.85259520  0.58007733     0.13300
C737        C  0.56805147  0.68125422  0.79566185    -0.12800
C738        C  0.56949931  0.70911717  0.75174640     0.09400
C739        C  0.55300342  0.69236860  0.70641426    -0.12800
C740        C  0.53582739  0.64905305  0.70508217    -0.12800
C741        C  0.53420922  0.62155710  0.74915175     0.09400
C742        C  0.55042530  0.63821167  0.79440734    -0.12800
H743        H  0.58111104  0.69225285  0.83103062     0.13300
H744        H  0.55283062  0.71272309  0.67189272     0.13300
H745        H  0.52354190  0.63720944  0.66960498     0.13300
H746        H  0.55025790  0.61760845  0.82883204     0.13300
C747        C  0.80550024  0.92306572  0.80582562    -0.12800
C748        C  0.78959515  0.89895236  0.76508317     0.09400
C749        C  0.81802938  0.89219158  0.72278792    -0.12800
C750        C  0.86036076  0.91088116  0.72004780    -0.12800
C751        C  0.87582476  0.93567991  0.76017272     0.09400
C752        C  0.84847889  0.94100316  0.80352612    -0.12800
H753        H  0.78447429  0.92920189  0.83872997     0.13300
H754        H  0.80756856  0.87267056  0.69136386     0.13300
H755        H  0.88118544  0.90550853  0.68668914     0.13300
H756        H  0.85992911  0.95991863  0.83505588     0.13300
C757        C  0.60696551  0.88890855  0.89663066    -0.15900
C758        C  0.62425827  0.85799352  0.86582856    -0.31100
H759        H  0.59525717  0.92009711  0.88101048     0.13100
H760        H  0.63995608  0.82887738  0.88298082     0.13700
C761        C  0.61059332  0.86739248  0.61488336    -0.15900
C762        C  0.64376821  0.86272624  0.64750984    -0.31100
H763        H  0.57654556  0.86610710  0.62969424     0.13100
H764        H  0.67743591  0.85951352  0.63300721     0.13700
C765        C  0.57097228  0.70063757  0.45172687    -0.12800
C766        C  0.58806018  0.71742583  0.49661877     0.09400
C767        C  0.59052035  0.68875719  0.53968259    -0.12800
C768        C  0.57492069  0.64505109  0.53833249    -0.12800
C769        C  0.55723716  0.62877219  0.49368282     0.09400
C770        C  0.55606689  0.65670089  0.45019059    -0.12800
H771        H  0.56749566  0.72173806  0.41817680     0.13300
H772        H  0.60407966  0.70000914  0.57470629     0.13300
H773        H  0.57646154  0.62406196  0.57239081     0.13300
H774        H  0.54200700  0.64512604  0.41553801     0.13300
C775        C  0.80038826  0.92764790  0.55223367    -0.12800
C776        C  0.77440196  0.93375983  0.50873309     0.09400
C777        C  0.79463997  0.95372480  0.46491421    -0.12800
C778        C  0.83942296  0.96646293  0.46436493    -0.12800
C779        C  0.86513583  0.96025614  0.50776350     0.09400
C780        C  0.84504238  0.94106418  0.55185030    -0.12800
H781        H  0.78667989  0.91187228  0.58654599     0.13300
H782        H  0.77600353  0.96002573  0.43092249     0.13300
H783        H  0.85379822  0.98176370  0.43003672     0.13300
H784        H  0.86404485  0.93575373  0.58591198     0.13300
C785        C  0.49172055  0.99480466  0.77192879    -0.15900
C786        C  0.51878781  0.98025732  0.73460428    -0.31100
H787        H  0.49587797  0.98234735  0.81054735     0.13100
H788        H  0.51488145  0.99316759  0.69609622     0.13700
C789        C  0.42881773  0.29386410  0.70091121    -0.12800
C790        C  0.42767880  0.26784497  0.74631000     0.09400
C791        C  0.43949022  0.28844202  0.79155031    -0.12800
C792        C  0.45088413  0.33356827  0.79150666    -0.12800
C793        C  0.45145028  0.35940223  0.74626160     0.09400
C794        C  0.44080094  0.33894444  0.70084878    -0.12800
H795        H  0.41974682  0.27984919  0.66526832     0.13300
H796        H  0.44022878  0.27011366  0.82727131     0.13300
H797        H  0.45954724  0.34813213  0.82708326     0.13300
H798        H  0.44117523  0.35789891  0.66530926     0.13300
C799        C  0.20284323  0.04332712  0.69934252    -0.12800
C800        C  0.21911723  0.06591035  0.74115559     0.09400
C801        C  0.19002262  0.07331920  0.78269461    -0.12800
C802        C  0.14659513  0.05703097  0.78343964    -0.12800
C803        C  0.13072957  0.03372033  0.74222564     0.09400
C804        C  0.15892746  0.02764955  0.69975889    -0.12800
H805        H  0.22417432  0.03675090  0.66682936     0.13300
H806        H  0.20063230  0.09171441  0.81493340     0.13300
H807        H  0.12531052  0.06290929  0.81628433     0.13300
H808        H  0.14740425  0.00976469  0.66746543     0.13300
C809        C  0.49845733  0.98830680  0.51917678    -0.15900
C810        C  0.48964081  0.01930548  0.48318580    -0.31100
H811        H  0.48030177  0.98868415  0.55528556     0.13100
H812        H  0.49749388  0.02649423  0.94408484     0.13700
C813        C  0.36440441  0.10756222  0.85838203    -0.15900
C814        C  0.35656757  0.14218596  0.88824599    -0.31100
H815        H  0.36491858  0.07428314  0.87564845     0.13100
H816        H  0.35119931  0.17493301  0.87163758     0.13700
C817        C  0.38776749  0.10645600  0.64138251    -0.15900
C818        C  0.36600051  0.13219726  0.60778404    -0.31100
H819        H  0.40972919  0.08126932  0.62845187     0.13100
H820        H  0.34283789  0.15673729  0.62237081     0.13700
C821        C  0.41146486  0.31564220  0.53991386    -0.12800
C822        C  0.41676108  0.28930154  0.49694409     0.09400
C823        C  0.43737369  0.30828525  0.45289438    -0.12800
C824        C  0.45248574  0.35216396  0.45191488    -0.12800
C825        C  0.44795712  0.37806039  0.49511864     0.09400
C826        C  0.42711245  0.35949376  0.53908448    -0.12800
H827        H  0.39506742  0.30254838  0.57418647     0.13300
H828        H  0.44294279  0.28908974  0.41928926     0.13300
H829        H  0.46875157  0.36545939  0.41760122     0.13300
H830        H  0.42288352  0.37889466  0.57286937     0.13300
C831        C  0.19503377  0.06540507  0.45745099    -0.12800
C832        C  0.21331238  0.08271249  0.50155777     0.09400
C833        C  0.18730654  0.08101521  0.54676494    -0.12800
C834        C  0.14451488  0.06255373  0.54778921    -0.12800
C835        C  0.12633600  0.04587668  0.50352955     0.09400
C836        C  0.15205039  0.04754344  0.45837262    -0.12800
H837        H  0.21396184  0.06488797  0.42209832     0.13300
H838        H  0.19964316  0.09422827  0.58146307     0.13300
H839        H  0.12536521  0.06204823  0.58312415     0.13300
H840        H  0.13907407  0.03470390  0.42368724     0.13300
C841        C  0.00142507  0.48348890  0.73068554    -0.15900
C842        C  0.98966190  0.45380806  0.76777696    -0.31100
H843        H  0.98557168  0.48207545  0.69424634     0.13100
H844        H  0.00510026  0.45537194  0.80448093     0.13700
C845        C  0.93720687  0.18173967  0.79181890    -0.12800
C846        C  0.91521322  0.19931389  0.74912738     0.09400
C847        C  0.91353844  0.17355032  0.70543068    -0.12800
C848        C  0.93276198  0.13114819  0.70477921    -0.12800
C849        C  0.95375955  0.11342811  0.74795402     0.09400
C850        C  0.95592713  0.13923833  0.79132705    -0.12800
H851        H  0.94027069  0.20073059  0.82574169     0.13300
H852        H  0.89655262  0.18567740  0.67201788     0.13300
H853        H  0.93032561  0.11186686  0.67087858     0.13300
H854        H  0.97226058  0.12661177  0.82501832     0.13300
C855        C  0.68654850  0.42923985  0.79717831    -0.12800
C856        C  0.70706742  0.41183608  0.75344286     0.09400
C857        C  0.68248894  0.41134839  0.70852098    -0.12800
C858        C  0.63929207  0.42858058  0.70708590    -0.12800
C859        C  0.61912791  0.44621126  0.75066855     0.09400
C860        C  0.64307358  0.44594967  0.79585223    -0.12800
H861        H  0.70414481  0.43067162  0.83239247     0.13300
H862        H  0.69624191  0.39734973  0.67427019     0.13300
H863        H  0.62146402  0.42757272  0.67190244     0.13300
H864        H  0.62839213  0.45917151  0.83017538     0.13300
C865        C  0.00909640  0.51447582  0.01482598    -0.15900
C866        C  0.98772419  0.49489504  0.97720677    -0.31100
H867        H  0.01107749  0.49529577  0.55298916     0.13100
H868        H  0.99766194  0.50245076  0.93807572     0.13700
C869        C  0.85718576  0.34535982  0.86370671    -0.15900
C870        C  0.86351958  0.38041630  0.89335412    -0.31100
H871        H  0.85133507  0.31268069  0.88070771     0.13100
H872        H  0.86478032  0.41348973  0.87550804     0.13700
C873        C  0.88072734  0.38328176  0.61119726    -0.15900
C874        C  0.85965273  0.35516957  0.64434269    -0.31100
H875        H  0.89994916  0.41035335  0.62497124     0.13100
H876        H  0.83774753  0.33027432  0.62915008     0.13700
C877        C  0.93631493  0.15163683  0.46428306    -0.12800
C878        C  0.95566348  0.13206800  0.50745824     0.09400
C879        C  0.93177262  0.14993630  0.05055642    -0.12800
C880        C  0.92029739  0.19518096  0.05094162    -0.12800
C881        C  0.92852572  0.22282754  0.50627160     0.09400
C882        C  0.92260983  0.19612323  0.46382155    -0.12800
H883        H  0.93113872  0.13230919  0.43085343     0.13300
H884        H  0.92855689  0.13019736  0.08547581     0.13300
H885        H  0.90796740  0.20875580  0.08607163     0.13300
H886        H  0.90675965  0.20913329  0.43014691     0.13300
C887        C  0.68792743  0.40839544  0.46906839    -0.12800
C888        C  0.71486082  0.41739539  0.51055932     0.09400
C889        C  0.69475722  0.44293829  0.05374866    -0.10800
C890        C  0.65050343  0.45761021  0.05261365    -0.12800
C891        C  0.62633217  0.44834692  0.50738846     0.09400
C892        C  0.64440567  0.42410686  0.46726812    -0.12800
H893        H  0.70047576  0.38952550  0.43750058     0.13300
H894        H  0.71424037  0.44992400  0.08656813     0.13300
H895        H  0.63683651  0.47525170  0.08467148     0.13300
H896        H  0.62492410  0.41749236  0.43424340     0.13300
loop_ 
_geom_bond_atom_site_label_1 
_geom_bond_atom_site_label_2 
_geom_bond_distance 
_geom_bond_site_symmetry_2 
_ccdc_geom_bond_type 
C1            C3   1.540       .  S
C1            C5   1.544       .  S
C1            C4   1.540       .  S
C1          C425   1.520       .  S
C2            C6   1.520       .  S
C2            C8   1.547       .  S
C2            C7   1.527       .  S
C2          C422   1.515       .  S
C3           C11   1.381       .  A
C3          C454   1.390   1_554  A
C4           C15   1.379       .  A
C4          C455   1.391   1_554  A
C5           C19   1.380       .  A
C5          C456   1.397   1_554  A
C6            C9   1.365       .  A
C6          C451   1.388       .  A
C7           C13   1.371       .  A
C7          C452   1.390       .  A
C8           C16   1.379       .  A
C8          C453   1.398       .  A
C9           H22   1.080       .  S
C9          N458   1.357       .  A
N10          C11   1.365       .  A
N10         C457   1.359   1_554  A
N10         C440   1.444       .  S
C11          H12   1.077       .  S
C13          H23   1.080       .  S
C13          N14   1.353       .  A
N14         C463   1.364       .  A
N14         C418   1.440       .  S
C15          H21   1.081       .  S
C15         N462   1.363   1_554  A
C16          H18   1.079       .  S
C16         N465   1.364       .  A
N17          C19   1.364       .  A
N17         C464   1.361   1_554  A
N17         C433   1.451       .  S
C19          H20   1.081       .  S
C24          C26   1.538       .  S
C24          C28   1.541       .  S
C24          C27   1.558       .  S
C24         C426   1.528       .  S
C25          C29   1.524       .  S
C25          C31   1.534       .  S
C25          C30   1.537       .  S
C25         C421   1.516       .  S
C26          C34   1.379       .  A
C26          C29   1.389       .  A
C27          C38   1.390       .  A
C27          C30   1.400       .  A
C28          C42   1.374       .  A
C28          C31   1.391       .  A
C29          C32   1.368       .  A
C30          C36   1.373       .  A
C31          C39   1.380       .  A
C32          H45   1.081       .  S
C32          N33   1.358       .  A
N33          C34   1.363       .  A
N33         C398   1.442       .  S
C34          H35   1.080       .  S
C36          H46   1.078       .  S
C36          N37   1.349       .  A
N37          C38   1.363       .  A
N37         C394   1.442       .  S
C38          H44   1.075       .  S
C39          H41   1.081       .  S
C39          N40   1.366       .  A
N40          C42   1.364       .  A
N40         C408   1.453       .  S
C42          H43   1.076       .  S
C47          C49   1.538       .  S
C47          C51   1.535       .  S
C47          C50   1.559       .  S
C47         C370   1.525       .  S
C48          C52   1.521       .  S
C48          C54   1.542       .  S
C48          C53   1.525       .  S
C48         C366   1.516       .  S
C49          C57   1.378       .  A
C49         C500   1.394   1_554  A
C50          C61   1.389       .  A
C50         C501   1.398   1_554  A
C51          C65   1.373       .  A
C51         C502   1.388   1_554  A
C52          C55   1.368       .  A
C52         C497   1.387       .  A
C53          C59   1.367       .  A
C53         C498   1.399       .  A
C54          C62   1.380       .  A
C54         C499   1.393       .  A
C55          H68   1.082       .  S
C55         N504   1.359       .  A
N56          C57   1.358       .  A
N56         C503   1.356   1_554  A
N56         C374   1.439       .  S
C57          H58   1.081       .  S
C59          H69   1.078       .  S
C59         N508   1.346       .  A
N60          C61   1.363   1_556  A
N60         C507   1.349       .  A
N60         C362   1.443       .  S
C61          H67   1.073       .  S
C62          H64   1.079       .  S
C62         N511   1.361       .  A
N63          C65   1.362   1_556  A
N63         C510   1.365       .  A
N63         C384   1.449       .  S
C65          H66   1.079       .  S
C70          C72   1.537       .  S
C70          C74   1.522       .  S
C70          C73   1.529       .  S
C70         C365   1.512       .  S
C71          C75   1.538       .  S
C71          C77   1.547       .  S
C71          C76   1.537       .  S
C71         C369   1.513       .  S
C72          C80   1.372       .  A
C72          C75   1.392       .  A
C73          C84   1.372       .  A
C73          C76   1.389       .  A
C74          C88   1.365       .  A
C74          C77   1.391       .  A
C75          C78   1.376       .  A
C76          C82   1.379       .  A
C77          C85   1.385       .  A
C78          H91   1.080       .  S
C78          N79   1.364       .  A
N79          C80   1.362       .  A
N79         C342   1.448       .  S
C80          H81   1.079       .  S
C82          H92   1.081       .  S
C82          N83   1.362       .  A
N83          C84   1.354       .  A
N83         C337   1.440       .  S
C84          H90   1.077       .  S
C85          H87   1.079       .  S
C85          N86   1.366       .  A
N86          C88   1.355       .  A
N86         C352   1.442       .  S
C88          H89   1.082       .  S
C93          C95   1.528       .  S
C93          C97   1.553       .  S
C93          C96   1.527       .  S
C93         C313   1.519       .  S
C94          C98   1.544       .  S
C94         C100   1.535       .  S
C94          C99   1.539       .  S
C94         C309   1.520       .  S
C95         C103   1.370       .  A
C95         C546   1.388   1_554  A
C96         C107   1.369       .  A
C96         C547   1.391   1_554  A
C97         C111   1.385       .  A
C97         C548   1.397   1_554  A
C98         C101   1.379       .  A
C98         C543   1.389       .  A
C99         C105   1.382       .  A
C99         C544   1.390       .  A
C100        C108   1.373       .  A
C100        C545   1.395       .  A
C101        H114   1.080       .  S
C101        N550   1.361       .  A
N102        C103   1.362       .  A
N102        C549   1.363   1_554  A
N102        C318   1.447   1_554  S
C103        H104   1.080       .  S
C105        H115   1.081       .  S
C105        N554   1.365       .  A
N106        C107   1.352       .  A
N106        C553   1.364   1_554  A
N106        C361   1.439       .  S
C107        H113   1.080       .  S
C108        H110   1.080       .  S
C108        N557   1.360       .  A
N109        C111   1.363       .  A
N109        C556   1.361   1_554  A
N109        C328   1.450       .  S
C111        H112   1.079       .  S
C116        C118   1.525       .  S
C116        C120   1.532       .  S
C116        C119   1.534       .  S
C116        C314   1.514       .  S
C117        C121   1.549       .  S
C117        C123   1.542       .  S
C117        C122   1.536       .  S
C117        C310   1.515       .  S
C118        C126   1.366       .  A
C118        C121   1.391       .  A
C119        C130   1.371       .  A
C119        C122   1.392       .  A
C120        C134   1.375       .  A
C120        C123   1.391       .  A
C121        C124   1.386       .  A
C122        C128   1.379       .  A
C123        C131   1.378       .  A
C124        H137   1.080       .  S
C124        N125   1.365       .  A
N125        C126   1.356       .  A
N125        C300   1.444       .  S
C126        H127   1.081       .  S
C128        H138   1.082       .  S
C128        N129   1.364       .  A
N129        C130   1.355       .  A
N129        C338   1.440       .  S
C130        H136   1.078       .  S
C131        H133   1.080       .  S
C131        N132   1.364       .  A
N132        C134   1.363       .  A
N132        C290   1.448       .  S
C134        H135   1.081       .  S
C139        C141   1.542       .  S
C139        C143   1.542       .  S
C139        C142   1.551       .  S
C139        C262   1.523       .  S
C140        C144   1.538       .  S
C140        C146   1.521       .  S
C140        C145   1.536       .  S
C140        C265   1.519       .  S
C141        C149   1.379       .  A
C141        C592   1.394       .  A
C142        C153   1.387       .  A
C142        C593   1.396       .  A
C143        C157   1.384       .  A
C143        C594   1.388       .  A
C144        C147   1.378       .  A
C144        C589   1.394   1_554  A
C145        C151   1.369       .  A
C145        C590   1.398   1_554  A
C146        C154   1.367       .  A
C146        C591   1.387   1_554  A
C147        H160   1.081       .  S
C147        N596   1.365   1_554  A
N148        C149   1.365       .  A
N148        C595   1.365       .  A
N148        C280   1.452       .  S
C149        H150   1.079       .  S
C151        H161   1.075       .  S
C151        N600   1.349       .  A
N152        C153   1.361       .  A
N152        C599   1.350       .  A
N152        C417   1.441       .  S
C153        H159   1.077       .  S
C154        H156   1.081       .  S
C154        N603   1.355   1_554  A
N155        C157   1.365       .  A
N155        C602   1.358       .  A
N155        C270   1.444       .  S
C157        H158   1.081       .  S
C162        C164   1.533       .  S
C162        C166   1.535       .  S
C162        C165   1.544       .  S
C162        C261   1.515       .  S
C163        C167   1.554       .  S
C163        C169   1.523       .  S
C163        C168   1.529       .  S
C163        C266   1.521       .  S
C164        C172   1.372       .  A
C164        C167   1.398       .  A
C165        C176   1.385       .  A
C165        C168   1.392       .  A
C166        C180   1.377       .  A
C166        C169   1.386       .  A
C167        C170   1.387       .  A
C168        C174   1.369       .  A
C169        C177   1.365       .  A
C170        H183   1.079       .  S
C170        N171   1.365       .  A
N171        C172   1.360       .  A
N171        C242   1.451       .  S
C172        H173   1.079       .  S
C174        H184   1.079       .  S
C174        N175   1.350       .  A
N175        C176   1.365       .  A
N175        C393   1.440       .  S
C176        H182   1.081       .  S
C177        H179   1.080       .  S
C177        N178   1.359       .  A
N178        C180   1.364       .  A
N178        C252   1.443       .  S
C180        H181   1.079       .  S
O185       Cu193   2.023   1_545  S
O185        C195   1.280       .  A
O186       Cu193   2.021   1_455  S
O186        C196   1.280   1_554  A
O187       Cu193   2.013   1_445  S
O187        C197   1.279       .  A
O188       Cu193   2.014       .  S
O188        C198   1.278       .  A
O189       Cu194   2.012   1_565  S
O189        C646   1.279       .  A
O190       Cu194   2.011   1_455  S
O190        C645   1.279       .  A
O191       Cu194   2.019   1_465  S
O191        C644   1.279       .  A
O192       Cu194   2.013       .  S
O192        C643   1.279       .  A
Cu193      Cu642   2.370   1_554  S
Cu194      Cu641   2.370   1_545  S
C195        O640   1.279   1_554  A
C195        C430   1.485       .  S
C196        O639   1.280       .  A
C196        C283   1.489       .  S
C197        O638   1.278   1_554  A
C197        C387   1.480   1_554  S
C198        O637   1.280   1_554  A
C198        C331   1.484       .  S
O199       Cu207   2.000   1_545  S
O199        C209   1.278       .  A
O200       Cu207   1.999   1_455  S
O200        C210   1.277       .  A
O201       Cu207   2.005   1_445  S
O201        C211   1.279       .  A
O202       Cu207   2.005       .  S
O202        C212   1.277       .  A
O203       Cu208   2.009       .  S
O203        C212   1.279       .  A
O204       Cu208   2.013   1_445  S
O204        C211   1.278       .  A
O205       Cu208   1.989   1_455  S
O205        C210   1.277       .  A
O206       Cu208   1.994   1_545  S
O206        C209   1.276       .  A
Cu207      Cu208   2.372       .  S
C209        C401   1.472       .  S
C210        C255   1.469       .  S
C211        C355   1.478       .  S
C212        C303   1.477       .  S
O213       Cu221   2.008       .  S
O213        C223   1.277       .  A
O214       Cu221   2.003       .  S
O214        C224   1.279   1_554  A
O215       Cu221   2.001       .  S
O215        C225   1.277       .  A
O216       Cu221   1.989       .  S
O216        C226   1.276   1_554  A
O217       Cu222   2.008       .  S
O217        C674   1.279       .  A
O218       Cu222   1.998       .  S
O218        C673   1.278       .  A
O219       Cu222   2.007       .  S
O219        C672   1.277       .  A
O220       Cu222   2.002       .  S
O220        C671   1.278       .  A
Cu221      Cu670   2.374   1_554  S
Cu222      Cu669   2.374       .  S
C223        O668   1.278   1_554  A
C223        C443   1.474       .  S
C224        O667   1.276       .  A
C224        C273   1.472       .  S
C225        O666   1.278   1_554  A
C225        C377   1.473       .  S
C226        O665   1.279       .  A
C226        C321   1.475       .  S
O227       Cu235   2.017       .  S
O227        C237   1.279       .  A
O228       Cu235   2.017       .  S
O228        C238   1.279       .  A
O229       Cu235   2.003       .  S
O229        C239   1.278       .  A
O230       Cu235   2.011       .  S
O230        C240   1.279       .  A
O231       Cu236   2.011       .  S
O231        C240   1.278       .  A
O232       Cu236   2.007       .  S
O232        C239   1.278       .  A
O233       Cu236   2.016       .  S
O233        C238   1.279       .  A
O234       Cu236   2.021       .  S
O234        C237   1.281       .  A
Cu235      Cu236   2.371       .  S
C237        C411   1.487       .  S
C238        C245   1.484       .  S
C239        C345   1.479       .  S
C240        C293   1.481       .  S
C241        C242   1.410       .  A
C241        C246   1.401       .  A
C241        H247   1.081       .  S
C242        C243   1.410       .  A
C243        C244   1.398       .  A
C243        H248   1.080       .  S
C244        C245   1.404       .  A
C244        H249   1.083       .  S
C245        C246   1.405       .  A
C246        H250   1.084       .  S
C251        C252   1.408       .  A
C251        C256   1.396       .  A
C251        H257   1.080       .  S
C252        C253   1.409       .  A
C253        C254   1.389       .  A
C253        H258   1.080       .  S
C254        C255   1.401       .  A
C254        H259   1.083       .  S
C255        C256   1.403       .  A
C256        H260   1.083       .  S
C261        C262   1.349       .  D
C261        H263   1.075       .  S
C262        H264   1.086       .  S
C265        C266   1.339       .  D
C265        H267   1.076       .  S
C266        H268   1.086       .  S
C269        C274   1.391       .  A
C269        C718   1.407   1_554  A
C269        H275   1.082       .  S
C270        C271   1.408       .  A
C270        C717   1.408       .  A
C271        C272   1.403       .  A
C271        H276   1.081       .  S
C272        C721   1.406       .  A
C272        H277   1.083       .  S
C273        C274   1.400   1_556  A
C273        C720   1.405       .  A
C274        H278   1.083       .  S
C279        C284   1.403       .  A
C279        C728   1.410   1_554  A
C279        H285   1.081       .  S
C280        C281   1.410       .  A
C280        C727   1.410       .  A
C281        C282   1.401       .  A
C281        H286   1.081       .  S
C282        C731   1.406       .  A
C282        H287   1.083       .  S
C283        C284   1.406   1_556  A
C283        C730   1.406       .  A
C284        H288   1.083       .  S
C289        C290   1.408       .  A
C289        C294   1.399       .  A
C289        H295   1.080       .  S
C290        C291   1.409       .  A
C291        C292   1.399       .  A
C291        H296   1.081       .  S
C292        C293   1.405       .  A
C292        H297   1.083       .  S
C293        C294   1.404       .  A
C294        H298   1.083       .  S
C299        C300   1.407       .  A
C299        C304   1.401       .  A
C299        H305   1.081       .  S
C300        C301   1.409       .  A
C301        C302   1.393       .  A
C301        H306   1.081       .  S
C302        C303   1.401       .  A
C302        H307   1.083       .  S
C303        C304   1.406       .  A
C304        H308   1.083       .  S
C309        C310   1.345       .  D
C309        H311   1.084       .  S
C310        H312   1.082       .  S
C313        C314   1.338       .  D
C313        H315   1.087       .  S
C314        H316   1.077       .  S
C317        C318   1.409   1_554  A
C317        C322   1.393       .  A
C317        H323   1.080       .  S
C318        C319   1.410       .  A
C319        C320   1.398       .  A
C319        H324   1.080       .  S
C320        C321   1.403       .  A
C320        H325   1.083       .  S
C321        C322   1.402   1_556  A
C322        H326   1.083       .  S
C327        C328   1.410       .  A
C327        C332   1.401       .  A
C327        H333   1.082       .  S
C328        C329   1.409   1_554  A
C329        C330   1.399       .  A
C329        H334   1.081       .  S
C330        C331   1.405   1_556  A
C330        H335   1.083       .  S
C331        C332   1.405       .  A
C332        H336   1.083       .  S
C337        C338   1.343   1_545  D
C337        H339   1.085   1_545  S
C338        H340   1.085   1_565  S
C341        C342   1.409       .  A
C341        C346   1.399       .  A
C341        H347   1.080       .  S
C342        C343   1.409       .  A
C343        C344   1.394       .  A
C343        H348   1.079       .  S
C344        C345   1.402       .  A
C344        H349   1.083       .  S
C345        C346   1.405       .  A
C346        H350   1.082       .  S
C351        C352   1.405       .  A
C351        C356   1.402       .  A
C351        H357   1.082       .  S
C352        C353   1.407       .  A
C353        C354   1.392       .  A
C353        H358   1.082       .  S
C354        C355   1.402       .  A
C354        H359   1.083       .  S
C355        C356   1.407       .  A
C356        H360   1.083       .  S
C361        C362   1.342   1_564  D
C361        H363   1.083   1_565  S
C362        H812   1.085       .  S
H364        C810   1.086       .  S
C365        C366   1.340       .  D
C365        H367   1.079       .  S
C366        H368   1.085       .  S
C369        C370   1.342       .  D
C369        H371   1.065       .  S
C370        H372   1.086       .  S
C373        C374   1.405       .  A
C373        C378   1.397       .  A
C373        H379   1.081       .  S
C374        C375   1.406   1_554  A
C375        C376   1.394       .  A
C375        H380   1.082       .  S
C376        C377   1.403   1_556  A
C376        H381   1.083       .  S
C377        C378   1.404       .  A
C378        H382   1.084       .  S
C383        C384   1.410   1_554  A
C383        C388   1.398       .  A
C383        H389   1.081       .  S
C384        C385   1.409       .  A
C385        C386   1.399       .  A
C385        H390   1.080       .  S
C386        C387   1.405       .  A
C386        H391   1.083       .  S
C387        C388   1.403   1_556  A
C388        H392   1.083       .  S
C393        C394   1.341   1_455  D
C393        H395   1.085   1_455  S
C394        H396   1.085   1_655  S
C397        C398   1.409       .  A
C397        C402   1.392       .  A
C397        H403   1.081       .  S
C398        C399   1.406       .  A
C399        C400   1.397       .  A
C399        H404   1.081       .  S
C400        C401   1.405       .  A
C400        H405   1.082       .  S
C401        C402   1.401       .  A
C402        H406   1.084       .  S
C407        C408   1.410       .  A
C407        C412   1.404       .  A
C407        H413   1.081       .  S
C408        C409   1.411       .  A
C409        C410   1.398       .  A
C409        H414   1.081       .  S
C410        C411   1.404       .  A
C410        H415   1.083       .  S
C411        C412   1.407       .  A
C412        H416   1.083       .  S
C417        C418   1.342   1_455  D
C417        H867   1.083       .  S
C418        H420   1.083       .  S
H419        C865   1.084   1_655  S
C421        C422   1.339       .  D
C421        H423   1.080       .  S
C422        H424   1.086       .  S
C425        C426   1.342       .  D
C425        H427   1.071       .  S
C426        H428   1.087       .  S
C429        C430   1.404   1_556  A
C429        C434   1.397       .  A
C429        H435   1.083       .  S
C430        C879   1.405       .  A
C431        C432   1.404       .  A
C431        C878   1.406       .  A
C431        H436   1.083       .  S
C432        C881   1.411       .  A
C432        H437   1.081       .  S
C433        C434   1.411   1_554  A
C433        C880   1.409       .  A
C434        H438   1.080       .  S
C439        C440   1.408   1_556  A
C439        C444   1.390       .  A
C439        H445   1.081       .  S
C440        C889   1.408       .  A
C441        C442   1.399       .  A
C441        C888   1.407       .  A
C441        H446   1.081       .  S
C442        C891   1.405       .  A
C442        H447   1.083       .  S
C443        C444   1.400   1_554  A
C443        C890   1.406       .  A
C444        H448   1.084       .  S
C449        C451   1.540       .  S
C449        C453   1.545       .  S
C449        C452   1.542       .  S
C449        C873   1.521       .  S
C450        C454   1.522       .  S
C450        C456   1.544       .  S
C450        C455   1.531       .  S
C450        C870   1.521       .  S
C451        C459   1.380       .  A
C452        C463   1.381       .  A
C453        C467   1.380       .  A
C454        C457   1.364       .  A
C455        C461   1.374       .  A
C456        C464   1.377       .  A
C457        H470   1.081       .  S
N458        C459   1.364       .  A
N458        C888   1.442       .  S
C459        H460   1.077       .  S
C461        H471   1.081       .  S
C461        N462   1.355       .  A
N462        C866   1.441       .  S
C463        H469   1.081       .  S
C464        H466   1.077       .  S
N465        C467   1.364       .  A
N465        C881   1.453       .  S
C467        H468   1.080       .  S
C472        C474   1.538       .  S
C472        C476   1.538       .  S
C472        C475   1.555       .  S
C472        C874   1.529       .  S
C473        C477   1.533       .  S
C473        C479   1.532       .  S
C473        C478   1.537       .  S
C473        C869   1.519       .  S
C474        C482   1.378       .  A
C474        C477   1.394       .  A
C475        C486   1.388       .  A
C475        C478   1.399       .  A
C476        C490   1.374       .  A
C476        C479   1.389       .  A
C477        C480   1.375       .  A
C478        C484   1.374       .  A
C479        C487   1.379       .  A
C480        H493   1.081       .  S
C480        N481   1.360       .  A
N481        C482   1.360       .  A
N481        C846   1.445       .  S
C482        H483   1.080       .  S
C484        H494   1.079       .  S
C484        N485   1.351       .  A
N485        C486   1.363       .  A
N485        C842   1.444       .  S
C486        H492   1.077       .  S
C487        H489   1.081       .  S
C487        N488   1.365       .  A
N488        C490   1.363       .  A
N488        C856   1.451       .  S
C490        H491   1.076       .  S
C495        C497   1.539       .  S
C495        C499   1.539       .  S
C495        C498   1.561       .  S
C495        C818   1.527       .  S
C496        C500   1.526       .  S
C496        C502   1.532       .  S
C496        C501   1.534       .  S
C496        C814   1.511       .  S
C497        C505   1.378       .  A
C498        C509   1.394       .  A
C499        C513   1.376       .  A
C500        C503   1.373       .  A
C501        C507   1.373       .  A
C502        C510   1.377       .  A
C503        H516   1.080       .  S
N504        C505   1.364       .  A
N504        C822   1.443       .  S
C505        H506   1.081       .  S
C507        H517   1.078       .  S
N508        C509   1.362       .  A
N508        C810   1.439       .  S
C509        H515   1.073       .  S
C510        H512   1.080       .  S
N511        C513   1.361       .  A
N511        C832   1.449       .  S
C513        H514   1.077       .  S
C518        C520   1.546       .  S
C518        C522   1.521       .  S
C518        C521   1.531       .  S
C518        C813   1.512       .  S
C519        C523   1.541       .  S
C519        C525   1.538       .  S
C519        C524   1.540       .  S
C519        C817   1.513       .  S
C520        C528   1.378       .  A
C520        C523   1.396       .  A
C521        C532   1.374       .  A
C521        C524   1.388       .  A
C522        C536   1.366       .  A
C522        C525   1.387       .  A
C523        C526   1.379       .  A
C524        C530   1.381       .  A
C525        C533   1.379       .  A
C526        H539   1.079       .  S
C526        N527   1.365       .  A
N527        C528   1.363       .  A
N527        C790   1.452       .  S
C528        H529   1.072       .  S
C530        H540   1.081       .  S
C530        N531   1.363       .  A
N531        C532   1.355       .  A
N531        C785   1.442   1_545  S
C532        H538   1.080       .  S
C533        H535   1.077       .  S
C533        N534   1.364       .  A
N534        C536   1.359       .  A
N534        C800   1.444       .  S
C536        H537   1.081       .  S
C541        C543   1.524       .  S
C541        C545   1.553       .  S
C541        C544   1.527       .  S
C541        C761   1.515       .  S
C542        C546   1.538       .  S
C542        C548   1.535       .  S
C542        C547   1.543       .  S
C542        C757   1.518       .  S
C543        C551   1.370       .  A
C544        C555   1.370       .  A
C545        C559   1.385       .  A
C546        C549   1.377       .  A
C547        C553   1.384       .  A
C548        C556   1.374       .  A
C549        H562   1.077       .  S
N550        C551   1.359       .  A
N550        C766   1.443       .  S
C551        H552   1.080       .  S
C553        H563   1.081       .  S
N554        C555   1.352       .  A
N554        C809   1.439       .  S
C555        H561   1.080       .  S
C556        H558   1.080       .  S
N557        C559   1.365       .  A
N557        C776   1.451       .  S
C559        H560   1.078       .  S
C564        C566   1.517       .  S
C564        C568   1.531       .  S
C564        C567   1.534       .  S
C564        C762   1.514       .  S
C565        C569   1.540       .  S
C565        C571   1.543       .  S
C565        C570   1.554       .  S
C565        C758   1.524       .  S
C566        C574   1.363       .  A
C566        C569   1.387       .  A
C567        C578   1.372       .  A
C567        C570   1.398       .  A
C568        C582   1.374       .  A
C568        C571   1.392       .  A
C569        C572   1.382       .  A
C570        C576   1.387       .  A
C571        C579   1.378       .  A
C572        H585   1.081       .  S
C572        N573   1.364       .  A
N573        C574   1.355       .  A
N573        C748   1.439       .  S
C574        H575   1.081       .  S
C576        H586   1.076       .  S
C576        N577   1.362       .  A
N577        C578   1.352       .  A
N577        C786   1.443       .  S
C578        H584   1.076       .  S
C579        H581   1.080       .  S
C579        N580   1.365       .  A
N580        C582   1.363       .  A
N580        C738   1.449       .  S
C582        H583   1.079       .  S
C587        C589   1.543       .  S
C587        C591   1.541       .  S
C587        C590   1.548       .  S
C587        C710   1.523       .  S
C588        C592   1.539       .  S
C588        C594   1.524       .  S
C588        C593   1.533       .  S
C588        C713   1.520       .  S
C589        C597   1.379       .  A
C590        C601   1.387       .  A
C591        C605   1.384       .  A
C592        C595   1.379       .  A
C593        C599   1.370       .  A
C594        C602   1.367       .  A
C595        H608   1.081       .  S
N596        C597   1.365       .  A
N596        C728   1.453       .  S
C597        H598   1.080       .  S
C599        H609   1.071       .  S
N600        C601   1.360   1_554  A
N600        C865   1.440       .  S
C601        H607   1.079       .  S
C602        H604   1.081       .  S
N603        C605   1.364       .  A
N603        C718   1.441       .  S
C605        H606   1.081       .  S
C610        C612   1.536       .  S
C610        C614   1.534       .  S
C610        C613   1.543       .  S
C610        C709   1.516       .  S
C611        C615   1.553       .  S
C611        C617   1.527       .  S
C611        C616   1.535       .  S
C611        C714   1.522       .  S
C612        C620   1.374       .  A
C612        C615   1.397       .  A
C613        C624   1.385       .  A
C613        C616   1.393       .  A
C614        C628   1.377       .  A
C614        C617   1.387       .  A
C615        C618   1.386       .  A
C616        C622   1.373       .  A
C617        C625   1.371       .  A
C618        H631   1.079       .  S
C618        N619   1.364       .  A
N619        C620   1.361       .  A
N619        C690   1.452       .  S
C620        H621   1.079       .  S
C622        H632   1.074       .  S
C622        N623   1.355       .  A
N623        C624   1.364       .  A
N623        C841   1.442       .  S
C624        H630   1.082       .  S
C625        H627   1.081       .  S
C625        N626   1.359       .  A
N626        C628   1.361       .  A
N626        C700   1.441       .  S
C628        H629   1.080       .  S
O633       Cu641   2.026   1_545  S
O633        C643   1.280       .  A
O634       Cu641   2.028   1_455  S
O634        C644   1.281       .  A
O635       Cu641   2.009   1_445  S
O635        C645   1.278       .  A
O636       Cu641   2.012       .  S
O636        C646   1.278       .  A
O637       Cu642   2.019       .  S
O638       Cu642   2.008   1_445  S
O639       Cu642   2.023   1_455  S
O640       Cu642   2.010   1_545  S
C643        C878   1.486       .  S
C644        C731   1.490       .  S
C645        C835   1.481       .  S
C646        C779   1.482       .  S
O647       Cu655   2.005   1_645  S
O647        C657   1.279       .  A
O648       Cu655   2.014       .  S
O648        C658   1.279       .  A
O649       Cu655   1.995   1_545  S
O649        C659   1.277       .  A
O650       Cu655   1.994   1_655  S
O650        C660   1.276       .  A
O651       Cu656   1.997   1_655  S
O651        C660   1.278       .  A
O652       Cu656   2.013   1_545  S
O652        C659   1.278       .  A
O653       Cu656   1.995       .  S
O653        C658   1.277       .  A
O654       Cu656   2.007   1_645  S
O654        C657   1.278       .  A
Cu655      Cu656   2.374       .  S
C657        C849   1.478       .  S
C658        C703   1.476       .  S
C659        C803   1.475       .  S
C660        C751   1.467       .  S
O661       Cu669   2.005       .  S
O661        C671   1.277       .  A
O662       Cu669   2.004       .  S
O662        C672   1.279       .  A
O663       Cu669   2.002       .  S
O663        C673   1.277       .  A
O664       Cu669   1.992       .  S
O664        C674   1.276       .  A
O665       Cu670   2.014       .  S
O666       Cu670   2.003       .  S
O667       Cu670   2.002       .  S
O668       Cu670   2.000       .  S
C671        C891   1.472       .  S
C672        C721   1.476       .  S
C673        C825   1.474       .  S
C674        C769   1.472       .  S
O675       Cu683   2.010       .  S
O675        C685   1.278       .  A
O676       Cu683   2.018       .  S
O676        C686   1.279       .  A
O677       Cu683   2.007       .  S
O677        C687   1.278       .  A
O678       Cu683   2.010       .  S
O678        C688   1.279       .  A
O679       Cu684   2.017       .  S
O679        C688   1.279       .  A
O680       Cu684   2.013       .  S
O680        C687   1.279       .  A
O681       Cu684   2.017       .  S
O681        C686   1.279       .  A
O682       Cu684   2.018       .  S
O682        C685   1.280       .  A
Cu683      Cu684   2.370       .  S
C685        C859   1.483       .  S
C686        C693   1.485       .  S
C687        C793   1.482       .  S
C688        C741   1.483       .  S
C689        C690   1.410       .  A
C689        C694   1.401       .  A
C689        H695   1.081       .  S
C690        C691   1.410       .  A
C691        C692   1.400       .  A
C691        H696   1.080       .  S
C692        C693   1.405       .  A
C692        H697   1.082       .  S
C693        C694   1.405       .  A
C694        H698   1.084       .  S
C699        C700   1.408       .  A
C699        C704   1.399       .  A
C699        H705   1.081       .  S
C700        C701   1.405       .  A
C701        C702   1.394       .  A
C701        H706   1.082       .  S
C702        C703   1.404       .  A
C702        H707   1.083       .  S
C703        C704   1.403       .  A
C704        H708   1.082       .  S
C709        C710   1.350       .  D
C709        H711   1.076       .  S
C710        H712   1.086       .  S
C713        C714   1.342       .  D
C713        H715   1.077       .  S
C714        H716   1.086       .  S
C717        C722   1.391       .  A
C717        H723   1.082       .  S
C718        C719   1.406       .  A
C719        C720   1.401       .  A
C719        H724   1.081       .  S
C720        H725   1.083       .  S
C721        C722   1.401       .  A
C722        H726   1.083       .  S
C727        C732   1.403       .  A
C727        H733   1.081       .  S
C728        C729   1.409       .  A
C729        C730   1.402       .  A
C729        H734   1.080       .  S
C730        H735   1.083       .  S
C731        C732   1.406       .  A
C732        H736   1.082       .  S
C737        C738   1.408       .  A
C737        C742   1.398       .  A
C737        H743   1.081       .  S
C738        C739   1.411       .  A
C739        C740   1.400       .  A
C739        H744   1.081       .  S
C740        C741   1.405       .  A
C740        H745   1.083       .  S
C741        C742   1.405       .  A
C742        H746   1.083       .  S
C747        C748   1.406       .  A
C747        C752   1.398       .  A
C747        H753   1.081       .  S
C748        C749   1.408       .  A
C749        C750   1.389       .  A
C749        H754   1.081       .  S
C750        C751   1.399       .  A
C750        H755   1.083       .  S
C751        C752   1.405       .  A
C752        H756   1.083       .  S
C757        C758   1.348       .  D
C757        H759   1.075       .  S
C758        H760   1.086       .  S
C761        C762   1.336       .  D
C761        H763   1.086       .  S
C762        H764   1.078       .  S
C765        C766   1.408       .  A
C765        C770   1.395       .  A
C765        H771   1.080       .  S
C766        C767   1.407       .  A
C767        C768   1.395       .  A
C767        H772   1.081       .  S
C768        C769   1.403       .  A
C768        H773   1.083       .  S
C769        C770   1.401       .  A
C770        H774   1.082       .  S
C775        C776   1.410       .  A
C775        C780   1.400       .  A
C775        H781   1.081       .  S
C776        C777   1.410       .  A
C777        C778   1.398       .  A
C777        H782   1.080       .  S
C778        C779   1.403       .  A
C778        H783   1.083       .  S
C779        C780   1.405       .  A
C780        H784   1.083       .  S
C785        C786   1.345       .  D
C785        H787   1.084       .  S
C786        H788   1.085       .  S
C789        C790   1.409       .  A
C789        C794   1.400       .  A
C789        H795   1.081       .  S
C790        C791   1.412       .  A
C791        C792   1.397       .  A
C791        H796   1.077       .  S
C792        C793   1.403       .  A
C792        H797   1.084       .  S
C793        C794   1.405       .  A
C794        H798   1.081       .  S
C799        C800   1.408       .  A
C799        C804   1.400       .  A
C799        H805   1.081       .  S
C800        C801   1.408       .  A
C801        C802   1.392       .  A
C801        H806   1.081       .  S
C802        C803   1.402       .  A
C802        H807   1.083       .  S
C803        C804   1.404       .  A
C804        H808   1.083       .  S
C809        C810   1.340   1_565  D
C809        H811   1.086       .  S
C813        C814   1.340       .  D
C813        H815   1.086       .  S
C814        H816   1.078       .  S
C817        C818   1.341       .  D
C817        H819   1.063       .  S
C818        H820   1.086       .  S
C821        C822   1.407       .  A
C821        C826   1.397       .  A
C821        H827   1.082       .  S
C822        C823   1.408       .  A
C823        C824   1.392       .  A
C823        H828   1.081       .  S
C824        C825   1.402       .  A
C824        H829   1.083       .  S
C825        C826   1.405       .  A
C826        H830   1.084       .  S
C831        C832   1.410       .  A
C831        C836   1.397       .  A
C831        H837   1.081       .  S
C832        C833   1.409       .  A
C833        C834   1.399       .  A
C833        H838   1.081       .  S
C834        C835   1.405       .  A
C834        H839   1.083       .  S
C835        C836   1.403       .  A
C836        H840   1.084       .  S
C841        C842   1.344   1_455  D
C841        H843   1.084   1_455  S
C842        H844   1.085   1_655  S
C845        C846   1.408       .  A
C845        C850   1.395       .  A
C845        H851   1.080       .  S
C846        C847   1.408       .  A
C847        C848   1.399       .  A
C847        H852   1.082       .  S
C848        C849   1.405       .  A
C848        H853   1.083       .  S
C849        C850   1.403       .  A
C850        H854   1.084       .  S
C855        C856   1.409       .  A
C855        C860   1.400       .  A
C855        H861   1.081       .  S
C856        C857   1.411       .  A
C857        C858   1.398       .  A
C857        H862   1.081       .  S
C858        C859   1.404       .  A
C858        H863   1.083       .  S
C859        C860   1.406       .  A
C860        H864   1.083       .  S
C865        C866   1.344   1_454  D
C866        H868   1.084       .  S
C869        C870   1.345       .  D
C869        H871   1.079       .  S
C870        H872   1.086       .  S
C873        C874   1.344       .  D
C873        H875   1.074       .  S
C874        H876   1.087       .  S
C877        C878   1.404       .  A
C877        C882   1.398       .  A
C877        H883   1.084       .  S
C879        C880   1.402       .  A
C879        H884   1.082       .  S
C880        H885   1.080       .  S
C881        C882   1.410       .  A
C882        H886   1.080       .  S
C887        C888   1.408       .  A
C887        C892   1.392       .  A
C887        H893   1.081       .  S
C889        C890   1.402       .  A
C889        H894   1.081       .  S
C890        H895   1.083       .  S
C891        C892   1.401       .  A
C892        H896   1.083       .  S
