geometry optimzed in LAMMPS
_audit_creation_date              2020-11-30 
_audit_creation_method            'lammps2cif' 
_symmetry_space_group_name_H-M    'P1' 
_symmetry_Int_Tables_number       1 
_symmetry_cell_setting            triclinic 
loop_ 
_symmetry_equiv_pos_as_xyz 
  x,y,z 
_cell_length_a                    43.261691163767594 
_cell_length_b                    43.47426654091415 
_cell_length_c                    43.61637073375114 
_cell_angle_alpha                 89.70762731844897 
_cell_angle_beta                  89.995583507687 
_cell_angle_gamma                 90.07832557604607 
loop_ 
_atom_site_label 
_atom_site_type_symbol 
_atom_site_fract_x 
_atom_site_fract_y 
_atom_site_fract_z 
_atom_site_charge 
O1          O  0.41331547  0.00145987  0.20052441    -0.75680
O2          O  0.45130452  0.00240079  0.16410235    -0.54580
C3          C  0.42283409  0.00248380  0.17255711     0.78050
O4          O  0.50410809  0.08333621  0.30386586    -0.60280
O5          O  0.50282242  0.04486233  0.33937040    -0.53310
C6          C  0.50377735  0.07342035  0.33179066     0.70070
O7          O  0.49937735  0.08567809  0.20014834    -0.74840
O8          O  0.99845984  0.04797049  0.16406470    -0.55400
C9          C  0.49798294  0.07640123  0.17217793     0.76070
O10         O  0.41485970  0.00178738  0.30420305    -0.59980
O11         O  0.45378820  0.50020238  0.33946323    -0.53100
C12         C  0.42509333  0.00190285  0.33198178     0.72660
Zr13       Zr  0.43554854  0.00022093  0.25196838     2.54710
O14         O  0.39772306  0.04160249  0.25149554    -0.80550
O15         O  0.39597881  0.46037145  0.25345121    -0.93960
Zr16       Zr  0.50187331  0.06338542  0.25162745     2.64680
O17         O  0.46190717  0.10270129  0.25402584    -0.98920
O18         O  0.04306556  0.10159791  0.25054345    -0.80980
O19         O  0.46797901  0.03254437  0.22205717    -0.84340
O20         O  0.46867668  0.03185691  0.28141338    -2.19050
O21         O  0.99829695  0.41198403  0.30118853    -0.67730
O22         O  0.49716891  0.44952351  0.33763114    -0.52290
C23         C  0.99716077  0.42126573  0.32906556     0.71040
O24         O  0.08636849  0.49813157  0.19826627    -0.60630
O25         O  0.04737682  0.99791380  0.16284247    -0.52610
C26         C  0.07609274  0.49780415  0.17055483     0.72850
O27         O  0.08750711  0.49829487  0.30171355    -0.72030
O28         O  0.04945863  0.49519113  0.33794660    -0.50710
C29         C  0.07797354  0.49644155  0.32964684     0.74230
O30         O  0.00115522  0.41414078  0.19877408    -0.67360
O31         O  0.99794874  0.45190927  0.16284207    -0.54560
C32         C  0.99942077  0.42335162  0.17083128     0.72610
Zr33       Zr  0.99917388  0.43479260  0.25032155     2.77540
O34         O  0.03782209  0.39410240  0.25027128    -0.98110
O35         O  0.45632956  0.39848086  0.24920448    -0.78930
Zr36       Zr  0.06531532  0.49810246  0.25020962     2.70070
O37         O  0.10369406  0.45722539  0.25022591    -0.80180
O38         O  0.10409118  0.03872492  0.24894062    -0.99260
Zr39       Zr  0.99962953  0.99960343  0.19194508     2.21500
Zr40       Zr  0.50109931  0.49789323  0.30993696     2.11130
O41         O  0.03322357  0.46523266  0.27999467    -2.47950
O42         O  0.03245466  0.46624438  0.22052338    -0.79970
O43         O  0.46709925  0.46634588  0.28097129    -0.72160
O44         O  0.03360608  0.03157509  0.22088482    -2.33120
O45         O  0.46629034  0.46721663  0.22130385    -2.29330
O46         O  0.03439056  0.03069135  0.28092627    -0.73920
H47         H  0.45655016  0.04464564  0.29485877     0.78070
H48         H  0.04622806  0.04414034  0.20750652     0.79160
H49         H  0.04575600  0.45212011  0.29289001     0.81390
H50         H  0.45327298  0.45491527  0.20818123     0.78990
H51         H  0.05853761  0.09330361  0.23606166     0.42030
H52         H  0.09852814  0.05239892  0.26616417     0.41000
H53         H  0.09332199  0.43985509  0.23981491     0.40680
H54         H  0.05119657  0.39845756  0.26815569     0.38610
H55         H  0.44107158  0.40692516  0.26382796     0.41740
H56         H  0.40003114  0.44758206  0.23517133     0.36530
H57         H  0.40818870  0.05873114  0.24060965     0.42640
H58         H  0.44917339  0.09715400  0.27208952     0.39060
H59         H  0.02628999  0.37527075  0.25609827     0.43980
H60         H  0.37651493  0.47132633  0.24861365     0.42700
H61         H  0.47299283  0.12162198  0.26020353     0.42840
H62         H  0.12343778  0.02855703  0.25561434     0.43190
O63         O  0.49841092  0.19766924  0.08559279    -0.75680
O64         O  0.99914381  0.16204763  0.04759680    -0.54580
C65         C  0.49843850  0.16963492  0.07597610     0.78050
O66         O  0.41448370  0.30191774  0.99597682    -0.60280
O67         O  0.45311320  0.33767602  0.99820969    -0.53310
C68         C  0.42452361  0.32985633  0.99635462     0.70070
O69         O  0.41410076  0.19773108  0.00224168    -0.74840
O70         O  0.45281847  0.16200167  0.00055088    -0.55400
C71         C  0.42425713  0.16989631  0.00189793     0.76070
O72         O  0.50291122  0.30226626  0.08414659    -0.59980
O73         O  0.50039251  0.33803130  0.04610025    -0.53100
C74         C  0.50214711  0.33037537  0.07450762     0.72660
Zr75       Zr  0.50008818  0.24988696  0.06416782     2.54710
O76         O  0.45867896  0.25176627  0.10188872    -0.80550
O77         O  0.03968388  0.24903042  0.10385007    -0.93960
Zr78       Zr  0.43554062  0.24976009  0.99956088     2.64680
O79         O  0.39717212  0.25144247  0.04038444    -0.98920
O80         O  0.39592435  0.24793802  0.45994775    -0.80980
O81         O  0.46748565  0.21996332  0.03238219    -0.84340
O82         O  0.46735786  0.27971473  0.03213180    -2.19050
O83         O  0.08706396  0.30175495  0.00437495    -0.67730
O84         O  0.04856231  0.33738590  0.99961381    -0.52290
C85         C  0.07707029  0.32960625  0.50248956     0.71040
O86         O  0.00339047  0.19772468  0.41479364    -0.60630
O87         O  0.00106375  0.16164721  0.45259284    -0.52610
C88         C  0.00222896  0.16969790  0.42414704     0.72850
O89         O  0.00082654  0.30025438  0.41316682    -0.72030
O90         O  0.50011761  0.33653938  0.45086404    -0.50710
C91         C  0.00059719  0.32817188  0.42261649     0.74230
O92         O  0.08713402  0.19791801  0.00181156    -0.67360
O93         O  0.04842781  0.16203325  0.00151798    -0.54560
C94         C  0.07699911  0.17005809  0.50211502     0.72610
Zr95       Zr  0.06562284  0.24980976  0.00055841     2.77540
O96         O  0.10336856  0.25094963  0.45914287    -0.98110
O97         O  0.10554302  0.24849903  0.03984907    -0.78930
Zr98       Zr  0.00093656  0.24925602  0.43583083     2.70070
O99         O  0.03932088  0.25015955  0.39505234    -0.80180
O100        O  0.45791479  0.24787100  0.39988217    -0.99260
Zr101      Zr  0.00063051  0.19077128  0.00009373     2.21500
Zr102      Zr  0.50064343  0.30859714  0.99919546     2.11130
O103        O  0.03393379  0.27927943  0.46722244    -2.47950
O104        O  0.03407813  0.21972680  0.46767350    -0.79970
O105        O  0.03324387  0.27967326  0.03251379    -0.72160
O106        O  0.46755144  0.21966847  0.46724070    -2.33120
O107        O  0.03324848  0.22006592  0.03302538    -2.29330
O108        O  0.46780011  0.27935493  0.46676945    -0.73920
H109        H  0.45476533  0.29317931  0.04446807     0.78070
H110        H  0.45503840  0.20628653  0.45470103     0.79160
H111        H  0.04669718  0.29254714  0.45470130     0.81390
H112        H  0.04569073  0.20686540  0.04589524     0.78990
H113        H  0.40331920  0.23232322  0.44523558     0.42030
H114        H  0.44366359  0.26412151  0.40705277     0.41000
H115        H  0.05940572  0.24919081  0.40588597     0.40680
H116        H  0.10051796  0.27121671  0.44908539     0.38610
H117        H  0.09524657  0.25656570  0.05841405     0.41740
H118        H  0.05258236  0.23087064  0.09910805     0.36530
H119        H  0.44297974  0.23713306  0.09416382     0.42640
H120        H  0.40202222  0.27032517  0.05203697     0.39060
H121        H  0.12357926  0.25258905  0.46966266     0.43980
H122        H  0.02846247  0.24325327  0.12281458     0.42700
H123        H  0.37750346  0.25616220  0.02976120     0.42840
H124        H  0.46655554  0.25606314  0.38046533     0.43190
O125        O  0.30304456  0.08606718  0.00156385    -0.75680
O126        O  0.33883651  0.04742569  0.00244483    -0.54580
C127        C  0.33098036  0.07591168  0.00196933     0.78050
O128        O  0.19695080  0.50150128  0.08638363    -0.60280
O129        O  0.16134504  0.99953395  0.04771473    -0.53310
C130        C  0.16902156  0.00066273  0.07616098     0.70070
O131        O  0.30123218  0.49973230  0.08805905    -0.74840
O132        O  0.33782501  0.50075081  0.05027846    -0.55400
C133        C  0.32940755  0.00001663  0.07856188     0.76070
O134        O  0.19894831  0.08665958  0.00049485    -0.59980
O135        O  0.16257594  0.04843659  0.99992884    -0.53100
C136        C  0.17087065  0.07686044  0.00007283     0.72660
Zr137      Zr  0.25077446  0.06471559  0.00068290     2.54710
O138        O  0.25061009  0.10386123  0.04037900    -0.80550
O139        O  0.25085692  0.10258314  0.45935126    -0.93960
Zr140      Zr  0.24949545  0.50066596  0.06583808     2.64680
O141        O  0.25049960  0.04171166  0.10360064    -0.98920
O142        O  0.24760340  0.46075708  0.10514410    -0.80980
O143        O  0.28016035  0.03309924  0.03419266    -0.84340
O144        O  0.22018764  0.03325100  0.03327304    -2.19050
O145        O  0.19948846  0.00047452  0.41480034    -0.67730
O146        O  0.16278127  0.99938186  0.45242705    -0.52290
C147        C  0.17125510  0.50009779  0.42417088     0.71040
O148        O  0.30229391  0.41406653  0.99986327    -0.60630
O149        O  0.33843570  0.45229427  0.00225276    -0.52610
C150        C  0.33042081  0.42385268  0.50079490     0.72850
O151        O  0.19782386  0.41458536  0.00696536    -0.72030
O152        O  0.16198443  0.45283902  0.00179865    -0.50710
C153        C  0.16983559  0.42454594  0.50527808     0.74230
O154        O  0.30334701  0.99930495  0.41641272    -0.67360
O155        O  0.33903742  0.49941124  0.45490106    -0.54560
C156        C  0.33132769  0.49923222  0.42640954     0.72610
Zr157      Zr  0.25110065  0.99957254  0.43725168     2.77540
O158        O  0.25177585  0.45857531  0.39942347    -0.98110
O159        O  0.25240069  0.03972437  0.39818246    -0.78930
Zr160      Zr  0.25011155  0.43552798  0.00245689     2.70070
O161        O  0.24660375  0.39687737  0.46242994    -0.80180
O162        O  0.25363637  0.39695947  0.04296405    -0.99260
Zr163      Zr  0.30963358  0.49995378  0.00225905     2.21500
Zr164      Zr  0.19101680  0.00034298  0.00059545     2.11130
O165        O  0.22062093  0.46698526  0.46888754    -2.47950
O166        O  0.28058659  0.46699639  0.46971017    -0.79970
O167        O  0.22084447  0.03288262  0.46795932    -0.72160
O168        O  0.27977726  0.46745567  0.03502362    -2.33120
O169        O  0.28085553  0.03255695  0.46877902    -2.29330
O170        O  0.21980709  0.46781358  0.03414400    -0.73920
H171        H  0.20678173  0.04601689  0.04548545     0.78070
H172        H  0.29293755  0.45479332  0.04772987     0.79160
H173        H  0.20734810  0.45422337  0.45647055     0.81390
H174        H  0.29438417  0.04500007  0.45619390     0.78990
H175        H  0.25824042  0.44294112  0.09586125     0.42030
H176        H  0.23705954  0.40248059  0.05757748     0.41000
H177        H  0.26032960  0.40464486  0.44594632     0.40680
H178        H  0.23330650  0.44592468  0.40410217     0.38610
H179        H  0.24374552  0.05804705  0.40846056     0.41740
H180        H  0.27019306  0.09868270  0.44787355     0.36530
H181        H  0.26344742  0.09506067  0.05703466     0.42640
H182        H  0.23458513  0.05649170  0.09658233     0.39060
H183        H  0.24676865  0.46895771  0.37978814     0.43980
H184        H  0.25445104  0.12247839  0.46971682     0.42700
H185        H  0.24167094  0.03232433  0.12239380     0.42840
H186        H  0.24633960  0.37770224  0.03331969     0.43190
C187        C  0.40143846  0.35484536  0.99547030    -0.06510
C188        C  0.40438370  0.37908870  0.01640168    -0.17640
C189        C  0.38157131  0.40173005  0.01890462     0.10690
C190        C  0.35524309  0.40054053  0.49967459    -0.06430
C191        C  0.35275857  0.37673203  0.47817733    -0.17670
C192        C  0.37573177  0.35427810  0.47550955     0.10720
S193        S  0.38669304  0.43029413  0.04832009    -0.32630
S194        S  0.37166689  0.32647759  0.44522330    -0.32640
H195        H  0.40352737  0.32378031  0.43930284     0.28730
H196        H  0.35522711  0.43206863  0.05590849     0.28720
H197        H  0.42401314  0.37969950  0.03184367     0.19320
H198        H  0.33311045  0.37606517  0.46277085     0.19320
C199        C  0.40133772  0.14505624  0.00268785    -0.06510
C200        C  0.39151675  0.13257075  0.47478293    -0.17640
C201        C  0.36912286  0.10936503  0.47396796     0.10690
C202        C  0.35589368  0.09879667  0.00164455    -0.06430
C203        C  0.36579300  0.11117523  0.02959585    -0.17670
C204        C  0.38865375  0.13397547  0.03045033     0.10720
S205        S  0.35763190  0.09507448  0.43689312    -0.32630
S206        S  0.40017742  0.14829928  0.06751272    -0.32640
H207        H  0.43053133  0.15644246  0.05939674     0.28730
H208        H  0.35137619  0.06482340  0.44643648     0.28960
H209        H  0.40130706  0.14106339  0.45347353     0.19320
H210        H  0.35564061  0.10301033  0.05086191     0.19320
C211        C  0.10018829  0.35450495  0.50335253    -0.06510
C212        C  0.12007116  0.35653340  0.02868476    -0.17640
C213        C  0.14206575  0.38011586  0.03070172     0.10690
C214        C  0.14486731  0.40160063  0.50646358    -0.06430
C215        C  0.12453182  0.40000239  0.48153725    -0.17670
C216        C  0.10248147  0.37660030  0.47960277     0.10720
S217        S  0.16500899  0.38229687  0.06515694    -0.32630
S218        S  0.07930688  0.37502541  0.44538470    -0.32640
H219        H  0.07969807  0.34278743  0.44390554     0.28730
H220        H  0.16899234  0.41441627  0.06452850     0.28720
H221        H  0.11801362  0.34001439  0.04727435     0.19320
H222        H  0.12671909  0.41634465  0.46279941     0.19320
C223        C  0.10007302  0.14545406  0.50245816    -0.06510
C224        C  0.11266057  0.13652879  0.47432635    -0.17640
C225        C  0.13597900  0.11440946  0.47288733     0.10690
C226        C  0.14642524  0.10021638  0.00015567    -0.06430
C227        C  0.13367409  0.10896861  0.02834387    -0.17670
C228        C  0.11071776  0.13159030  0.02987902     0.10720
S229        S  0.15110181  0.10535120  0.43555141    -0.32630
S230        S  0.09730434  0.14245911  0.06752224    -0.32640
H231        H  0.06946200  0.15635893  0.05869198     0.28730
H232        H  0.18118621  0.09787658  0.44501501     0.28720
H233        H  0.10463426  0.14733314  0.45332929     0.19320
H234        H  0.14194260  0.09836593  0.04932909     0.19320
C235        C  0.40212420  0.00364328  0.35712315    -0.06510
C236        C  0.40682238  0.48586721  0.38366580    -0.17640
C237        C  0.38389266  0.48307815  0.40616925     0.10690
C238        C  0.35617727  0.50000318  0.40314052    -0.06430
C239        C  0.35219728  0.01908959  0.37740558    -0.17670
C240        C  0.37485715  0.02136362  0.35465598     0.10720
S241        S  0.39052519  0.45586208  0.43681820    -0.32630
S242        S  0.36835687  0.04878039  0.32418263    -0.32640
H243        H  0.39955187  0.05762446  0.32148397     0.28730
H244        H  0.35985969  0.44506169  0.43774436     0.28720
H245        H  0.42804840  0.47304294  0.38636167     0.19320
H246        H  0.33147502  0.03293263  0.37528549     0.19320
C247        C  0.14689627  0.50022467  0.40048856    -0.06510
C248        C  0.12455317  0.47675443  0.40100293    -0.17640
C249        C  0.10242677  0.47424898  0.37766827     0.10690
C250        C  0.10173516  0.49644091  0.35389273    -0.06430
C251        C  0.12405532  0.01984357  0.35337055    -0.17670
C252        C  0.14655622  0.02202185  0.37626531     0.10720
S253        S  0.07712609  0.44121680  0.37846199    -0.32630
S254        S  0.17362474  0.05353418  0.37320280    -0.32640
H255        H  0.18133081  0.05519992  0.40437504     0.28730
H256        H  0.07466477  0.43821039  0.34645954     0.28720
H257        H  0.12515745  0.45950221  0.41902305     0.19320
H258        H  0.12363671  0.03693440  0.33518306     0.19320
C259        C  0.09921660  0.49800670  0.14583097    -0.06510
C260        C  0.11896192  0.02349086  0.14343816    -0.17640
C261        C  0.14102136  0.02549810  0.12009042     0.10690
C262        C  0.14400932  0.00115134  0.09900908    -0.06430
C263        C  0.12396743  0.47583128  0.10107570    -0.17670
C264        C  0.10181529  0.47384001  0.12444781     0.10720
S265        S  0.16401652  0.06008020  0.11786322    -0.32630
S266        S  0.07871892  0.43931242  0.12656404    -0.32640
H267        H  0.07438661  0.43946374  0.15850760     0.28730
H268        H  0.16745557  0.05993107  0.08582431     0.28720
H269        H  0.11677193  0.04225642  0.15956790     0.19320
H270        H  0.12636352  0.45697707  0.08507845     0.19320
C271        C  0.35386606  0.99955835  0.10201691    -0.06510
C272        C  0.37606273  0.02315146  0.10176633    -0.17640
C273        C  0.39834155  0.02529372  0.12495782     0.10690
C274        C  0.39908168  0.00279031  0.14842377    -0.06430
C275        C  0.37704019  0.47915140  0.14854041    -0.17670
C276        C  0.35461721  0.47712499  0.12558876     0.10720
S277        S  0.42393895  0.05810403  0.12424351    -0.32630
S278        S  0.32834527  0.44485760  0.12757831    -0.32640
H279        H  0.32130358  0.44344095  0.09625057     0.28730
H280        H  0.42712870  0.06053801  0.15623133     0.28720
H281        H  0.37529194  0.04069495  0.08402393     0.19320
H282        H  0.37770872  0.46170015  0.16637922     0.19320
C283        C  0.00229184  0.14513527  0.40043950    -0.06510
C284        C  0.01272762  0.11551971  0.40840245    -0.17640
C285        C  0.01328869  0.09154854  0.38698842     0.10690
C286        C  0.50343917  0.09705078  0.35642873    -0.06430
C287        C  0.49268043  0.12654800  0.34870533    -0.17670
C288        C  0.49197623  0.15036036  0.36998743     0.10720
S289        S  0.02803096  0.05504103  0.39998177    -0.32630
S290        S  0.47608810  0.18630621  0.35671938    -0.32640
H291        H  0.50534017  0.20048982  0.35545445     0.28730
H292        H  0.99897998  0.04061238  0.39758328     0.28720
H293        H  0.02081213  0.11096227  0.43149681     0.19320
H294        H  0.48433946  0.13124755  0.32572435     0.19320
C295        C  0.99699999  0.39737868  0.35284366    -0.06510
C296        C  0.02283313  0.37816252  0.35488006    -0.17640
C297        C  0.02476740  0.35526687  0.37731749     0.10690
C298        C  0.00062395  0.35226586  0.39903450    -0.06430
C299        C  0.47451591  0.37122016  0.39668637    -0.17670
C300        C  0.47196771  0.39295862  0.37309333     0.10720
S301        S  0.05862883  0.33097090  0.37615104    -0.32630
S302        S  0.43533199  0.41206887  0.36844628    -0.32640
H303        H  0.43806304  0.41827903  0.33690394     0.28730
H304        H  0.05557415  0.31652455  0.40469114     0.28720
H305        H  0.04171098  0.38103512  0.33874974     0.19320
H306        H  0.45533325  0.36795469  0.41238531     0.19320
C307        C  0.99945752  0.39935539  0.14633520    -0.06510
C308        C  0.00312574  0.40850967  0.11554173    -0.17640
C309        C  0.00505144  0.38703585  0.09170104     0.10690
C310        C  0.50248948  0.35508336  0.09828561    -0.06430
C311        C  0.49880489  0.34606907  0.12905317    -0.17670
C312        C  0.49692026  0.36736102  0.15277731     0.10720
S313        S  0.01180567  0.40239499  0.05383479    -0.32630
S314        S  0.48981101  0.35132556  0.19033045    -0.32640
H315        H  0.46319363  0.36932511  0.19477013     0.28730
H316        H  0.03729032  0.38308632  0.04833615     0.28720
H317        H  0.00533062  0.43270466  0.10987199     0.19320
H318        H  0.49646184  0.32194138  0.13495452     0.19320
C319        C  0.49724955  0.14465986  0.09951202    -0.06510
C320        C  0.48488479  0.15161369  0.12846113    -0.17640
C321        C  0.48347281  0.12966092  0.15196869     0.10690
C322        C  0.49623819  0.10004151  0.14742527    -0.06430
C323        C  0.00810464  0.09284274  0.11834643    -0.17670
C324        C  0.00820380  0.11435455  0.09435346     0.10720
S325        S  0.46339110  0.14068032  0.18639101    -0.32630
S326        S  0.02356553  0.10154983  0.05823721    -0.32640
H327        H  0.99477814  0.10402085  0.04338106     0.28730
H328        H  0.44760380  0.11248540  0.18937187     0.28720
H329        H  0.47533531  0.17423395  0.13268116     0.19320
H330        H  0.01763843  0.07020338  0.11419224     0.19320
O331        O  0.41328294  0.00144471  0.70054688    -0.75680
O332        O  0.45126258  0.00239221  0.66411603    -0.54580
C333        C  0.42279354  0.00247063  0.67257809     0.78050
O334        O  0.50409939  0.08333641  0.80386246    -0.60280
O335        O  0.50282393  0.04486289  0.83936767    -0.53310
C336        C  0.50377423  0.07342096  0.83178756     0.70070
O337        O  0.49936402  0.08567436  0.70014488    -0.74840
O338        O  0.99843192  0.04796646  0.66406171    -0.55400
C339        C  0.49796319  0.07639742  0.67217480     0.76070
O340        O  0.41485767  0.00178773  0.80420173    -0.59980
O341        O  0.45378832  0.50020273  0.83946306    -0.53100
C342        C  0.42509903  0.00191099  0.83197236     0.72660
Zr343      Zr  0.43553953  0.00021625  0.75197590     2.54710
O344        O  0.39771873  0.04160214  0.75150255    -0.80550
O345        O  0.39597869  0.46037160  0.75345140    -0.93960
Zr346      Zr  0.50186127  0.06338327  0.75162460     2.64680
O347        O  0.46189607  0.10269995  0.75402492    -0.98920
O348        O  0.04305496  0.10159408  0.75053462    -0.80980
O349        O  0.46795969  0.03254362  0.72205968    -0.84340
O350        O  0.46867086  0.03185405  0.78141547    -2.19050
O351        O  0.99829663  0.41198431  0.80118891    -0.67730
O352        O  0.49716883  0.44952378  0.83763150    -0.52290
C353        C  0.99716066  0.42126603  0.82906595     0.71040
O354        O  0.08636836  0.49813129  0.69826679    -0.60630
O355        O  0.04734017  0.99790943  0.66283245    -0.52610
C356        C  0.07609258  0.49780379  0.67055539     0.72850
O357        O  0.08750722  0.49829496  0.80171401    -0.72030
O358        O  0.04945875  0.49519138  0.83794705    -0.50710
C359        C  0.07797369  0.49644177  0.82964733     0.74230
O360        O  0.00115512  0.41414062  0.69877436    -0.67360
O361        O  0.99794883  0.45190906  0.66284229    -0.54560
C362        C  0.99942076  0.42335141  0.67083153     0.72610
Zr363      Zr  0.99917378  0.43479258  0.75032185     2.77540
O364        O  0.03782207  0.39410246  0.75027186    -0.98110
O365        O  0.45632960  0.39848066  0.74920484    -0.78930
Zr366      Zr  0.06531530  0.49810238  0.75021006     2.70070
O367        O  0.10369395  0.45722523  0.75022645    -0.80180
O368        O  0.10407998  0.03872453  0.74892385    -0.99260
Zr369      Zr  0.99960161  0.99960009  0.69194388     2.21500
Zr370      Zr  0.50109939  0.49789340  0.80993713     2.11130
O371        O  0.03322352  0.46523261  0.77999501    -2.47950
O372        O  0.03245462  0.46624432  0.72052375    -0.79970
O373        O  0.46709925  0.46634610  0.78097139    -0.72160
O374        O  0.03358661  0.03156973  0.72087887    -2.33120
O375        O  0.46629021  0.46721644  0.72130398    -2.29330
O376        O  0.03438439  0.03069182  0.78092061    -0.73920
H377        H  0.45654597  0.04464359  0.79486150     0.78070
H378        H  0.04620606  0.04413463  0.70749790     0.79160
H379        H  0.04575592  0.45212010  0.79289041     0.81390
H380        H  0.45327288  0.45491505  0.70818136     0.78990
H381        H  0.05852732  0.09329611  0.73605525     0.42030
H382        H  0.09852103  0.05239797  0.76614915     0.41000
H383        H  0.09332204  0.43985510  0.73981503     0.40680
H384        H  0.05119650  0.39845772  0.76815629     0.38610
H385        H  0.44107134  0.40692525  0.76382786     0.41740
H386        H  0.40003092  0.44758211  0.73517157     0.36530
H387        H  0.40818177  0.05872558  0.74060599     0.42640
H388        H  0.44916233  0.09715206  0.77208845     0.39060
H389        H  0.02628999  0.37527081  0.75609891     0.43980
H390        H  0.37651482  0.47132649  0.74861386     0.42700
H391        H  0.47298215  0.12162015  0.76020335     0.42840
H392        H  0.12342820  0.02855656  0.75559275     0.43190
O393        O  0.49840479  0.19766881  0.58559297    -0.75680
O394        O  0.99913555  0.16204716  0.54759699    -0.54580
C395        C  0.49843181  0.16963445  0.57597628     0.78050
O396        O  0.41447674  0.30191744  0.49597683    -0.60280
O397        O  0.45310691  0.33767524  0.49820899    -0.53310
C398        C  0.42451738  0.32985572  0.49635414     0.70070
O399        O  0.41408954  0.19773042  0.50224363    -0.74840
O400        O  0.45280642  0.16200040  0.50055303    -0.55400
C401        C  0.42424498  0.16989514  0.50190098     0.76070
O402        O  0.50290512  0.30226606  0.58414635    -0.59980
O403        O  0.50038694  0.33803125  0.54610011    -0.53100
C404        C  0.50214197  0.33037523  0.57450745     0.72660
Zr405      Zr  0.50008007  0.24988669  0.56416793     2.54710
O406        O  0.45867214  0.25176704  0.60189016    -0.80550
O407        O  0.03967676  0.24903009  0.60384920    -0.93960
Zr408      Zr  0.43553162  0.24975946  0.49956108     2.64680
O409        O  0.39716297  0.25144307  0.54038442    -0.98920
O410        O  0.39593340  0.24793786  0.95994754    -0.80980
O411        O  0.46747570  0.21996329  0.53238352    -0.84340
O412        O  0.46735012  0.27971432  0.53213136    -2.19050
O413        O  0.08705696  0.30175447  0.50437528    -0.67730
O414        O  0.04855595  0.33738587  0.49961369    -0.52290
C415        C  0.07707663  0.32960646  0.00248945     0.71040
O416        O  0.00339508  0.19772536  0.91479224    -0.60630
O417        O  0.00107314  0.16164775  0.95259157    -0.52610
C418        C  0.00223472  0.16969850  0.92414554     0.72850
O419        O  0.00083229  0.30025478  0.91316700    -0.72030
O420        O  0.50012260  0.33653974  0.95086420    -0.50710
C421        C  0.00060184  0.32817225  0.92261668     0.74230
O422        O  0.08712275  0.19791789  0.50180528    -0.67360
O423        O  0.04841558  0.16203393  0.50151338    -0.54560
C424        C  0.07701141  0.17005769  0.00212245     0.72610
Zr425      Zr  0.06561393  0.24980973  0.50055836     2.77540
O426        O  0.10337667  0.25094848  0.95914220    -0.98110
O427        O  0.10553310  0.24849552  0.53984995    -0.78930
Zr428      Zr  0.00094511  0.24925636  0.93583076     2.70070
O429        O  0.03932784  0.25016087  0.89505085    -0.80180
O430        O  0.45792191  0.24787090  0.89988386    -0.99260
Zr431      Zr  0.00061898  0.19077119  0.50009414     2.21500
Zr432      Zr  0.50063653  0.30859682  0.49919542     2.11130
O433        O  0.03394170  0.27927973  0.96722297    -2.47950
O434        O  0.03408848  0.21972692  0.96767218    -0.79970
O435        O  0.03323610  0.27967313  0.53251433    -0.72160
O436        O  0.46756158  0.21966883  0.96724152    -2.33120
O437        O  0.03323902  0.22006535  0.53302472    -2.29330
O438        O  0.46780814  0.27935537  0.96676876    -0.73920
H439        H  0.45475791  0.29317916  0.54446768     0.78070
H440        H  0.45504856  0.20628690  0.95470182     0.79160
H441        H  0.04670477  0.29254767  0.95470175     0.81390
H442        H  0.04568142  0.20686447  0.54589408     0.78990
H443        H  0.40332676  0.23232054  0.94523729     0.42030
H444        H  0.44367036  0.26412062  0.90705557     0.41000
H445        H  0.05941325  0.24919745  0.90588390     0.40680
H446        H  0.10052522  0.27121496  0.94908375     0.38610
H447        H  0.09523855  0.25656835  0.55841327     0.41740
H448        H  0.05257617  0.23087133  0.59910581     0.36530
H449        H  0.44297378  0.23713171  0.59416751     0.42640
H450        H  0.40201521  0.27032427  0.55203847     0.39060
H451        H  0.12358750  0.25258912  0.96966156     0.43980
H452        H  0.02845617  0.24325123  0.62281368     0.42700
H453        H  0.37749494  0.25616590  0.52976139     0.42840
H454        H  0.46656147  0.25606397  0.88046689     0.43190
O455        O  0.30302660  0.08606702  0.50157308    -0.75680
O456        O  0.33881845  0.04742558  0.50247559    -0.54580
C457        C  0.33096253  0.07591166  0.50198971     0.78050
O458        O  0.19694964  0.50150062  0.58638380    -0.60280
O459        O  0.16129862  0.99953805  0.54768070    -0.53310
C460        C  0.16896523  0.00066791  0.57612925     0.70070
O461        O  0.30123106  0.49973150  0.58805901    -0.74840
O462        O  0.33782355  0.50074980  0.55027816    -0.55400
C463        C  0.32934620  0.00001577  0.57860246     0.76070
O464        O  0.19893036  0.08665919  0.50048614    -0.59980
O465        O  0.16255808  0.04843647  0.49990114    -0.53100
C466        C  0.17085302  0.07686006  0.50005308     0.72660
Zr467      Zr  0.25075592  0.06471495  0.50068691     2.54710
O468        O  0.25058739  0.10385992  0.54038358    -0.80550
O469        O  0.25087335  0.10258463  0.95934801    -0.93960
Zr470      Zr  0.24949400  0.50066518  0.56583815     2.64680
O471        O  0.25042746  0.04170389  0.60360907    -0.98920
O472        O  0.24760243  0.46075609  0.60514401    -0.80980
O473        O  0.28012640  0.03309542  0.53420663    -0.84340
O474        O  0.22015500  0.03325171  0.53326596    -2.19050
O475        O  0.19948030  0.00047511  0.91481164    -0.67730
O476        O  0.16278213  0.99938493  0.95244750    -0.52290
C477        C  0.17125637  0.50009822  0.92417100     0.71040
O478        O  0.30229076  0.41406624  0.49986331    -0.60630
O479        O  0.33843293  0.45229367  0.50225251    -0.52610
C480        C  0.33042401  0.42385305  0.00079508     0.72850
O481        O  0.19782091  0.41458403  0.50696497    -0.72030
O482        O  0.16198182  0.45283800  0.50179841    -0.50710
C483        C  0.16983855  0.42454718  0.00527854     0.74230
O484        O  0.30343657  0.99929561  0.91635825    -0.67360
O485        O  0.33903892  0.49941232  0.95490078    -0.54560
C486        C  0.33132888  0.49923311  0.92640937     0.72610
Zr487      Zr  0.25111420  0.99957105  0.93724072     2.77540
O488        O  0.25177699  0.45857646  0.89942317    -0.98110
O489        O  0.25238773  0.03972453  0.89817869    -0.78930
Zr490      Zr  0.25010865  0.43552723  0.50245704     2.70070
O491        O  0.24660600  0.39687826  0.96242972    -0.80180
O492        O  0.25363382  0.39695883  0.54296427    -0.99260
Zr493      Zr  0.30963128  0.49995278  0.50225905     2.21500
Zr494      Zr  0.19099783  0.00034284  0.50057931     2.11130
O495        O  0.22062315  0.46698578  0.96888756    -2.47950
O496        O  0.28058884  0.46699754  0.96970998    -0.79970
O497        O  0.22085329  0.03288189  0.96796492    -0.72160
O498        O  0.27977511  0.46745459  0.53502360    -2.33120
O499        O  0.28086435  0.03255734  0.96876418    -2.29330
O500        O  0.21980484  0.46781312  0.53414425    -0.73920
H501        H  0.20674469  0.04601779  0.54547336     0.78070
H502        H  0.29293543  0.45479220  0.54772979     0.79160
H503        H  0.20735031  0.45422383  0.95647063     0.81390
H504        H  0.29439073  0.04499694  0.95617336     0.78990
H505        H  0.25823949  0.44294023  0.59586103     0.42030
H506        H  0.23705668  0.40247959  0.55757749     0.41000
H507        H  0.26033103  0.40464615  0.94594563     0.40680
H508        H  0.23330777  0.44592571  0.90410205     0.38610
H509        H  0.24374795  0.05805016  0.90846426     0.41740
H510        H  0.27021051  0.09868678  0.94787107     0.36530
H511        H  0.26342850  0.09506192  0.55703770     0.42640
H512        H  0.23453569  0.05649785  0.59656888     0.39060
H513        H  0.24676945  0.46895896  0.87978798     0.43980
H514        H  0.25446462  0.12248007  0.96971418     0.42700
H515        H  0.24156312  0.03232222  0.62238850     0.42840
H516        H  0.24633762  0.37770143  0.53331983     0.43190
C517        C  0.40143318  0.35484483  0.49546969    -0.06510
C518        C  0.40437905  0.37908771  0.51640137    -0.17640
C519        C  0.38156731  0.40172937  0.51890435     0.10690
C520        C  0.35524688  0.40054078  0.99967505    -0.06430
C521        C  0.35276283  0.37673174  0.97817825    -0.17670
C522        C  0.37573660  0.35427808  0.97551055     0.10720
S523        S  0.38668963  0.43029321  0.54831996    -0.32630
S524        S  0.37167185  0.32647723  0.94522463    -0.32640
H525        H  0.40353230  0.32378087  0.93930353     0.28730
H526        H  0.35522373  0.43206840  0.55590822     0.28720
H527        H  0.42400839  0.37969788  0.53184351     0.19320
H528        H  0.33311462  0.37606425  0.96277192     0.19320
C529        C  0.40132440  0.14505489  0.50269522    -0.06510
C530        C  0.39153472  0.13257407  0.97477321    -0.17640
C531        C  0.36914208  0.10936779  0.97395338     0.10690
C532        C  0.35587683  0.09879666  0.50166139    -0.06430
C533        C  0.36578098  0.11117672  0.52961037    -0.17670
C534        C  0.38864350  0.13397594  0.53046007     0.10720
S535        S  0.35765446  0.09508250  0.93687541    -0.32630
S536        S  0.40017393  0.14830068  0.56751993    -0.32640
H537        H  0.43052803  0.15643833  0.55939920     0.28730
H538        H  0.35138974  0.06483197  0.94641411     0.28960
H539        H  0.40132735  0.14106912  0.95346577     0.19320
H540        H  0.35563121  0.10301373  0.55087837     0.19320
C541        C  0.10019377  0.35450531  0.00335252    -0.06510
C542        C  0.12006629  0.35653259  0.52868445    -0.17640
C543        C  0.14206187  0.38011439  0.53070108     0.10690
C544        C  0.14487072  0.40160197  0.00646417    -0.06430
C545        C  0.12453559  0.40000343  0.98153762    -0.17670
C546        C  0.10248611  0.37660078  0.97960288     0.10720
S547        S  0.16500586  0.38229440  0.56515588    -0.32630
S548        S  0.07931153  0.37502536  0.94538480    -0.32640
H549        H  0.07970432  0.34278743  0.94390520     0.28730
H550        H  0.16898996  0.41441371  0.56452782     0.28720
H551        H  0.11800854  0.34001366  0.54727408     0.19320
H552        H  0.12672259  0.41634581  0.96279985     0.19320
C553        C  0.10008674  0.14545368  0.00246972    -0.06510
C554        C  0.11267955  0.13652900  0.97434007    -0.17640
C555        C  0.13599911  0.11441043  0.97290435     0.10690
C556        C  0.14640823  0.10021565  0.50013740    -0.06430
C557        C  0.13366240  0.10896896  0.52832744    -0.17670
C558        C  0.11070759  0.13159116  0.52986599     0.10720
S559        S  0.15112505  0.10535154  0.93556977    -0.32630
S560        S  0.09730104  0.14246139  0.56751124    -0.32640
H561        H  0.06945674  0.15636021  0.55868553     0.28730
H562        H  0.18120864  0.09787564  0.94503435     0.28720
H563        H  0.10465599  0.14733295  0.95334177     0.19320
H564        H  0.14193406  0.09836685  0.54931152     0.19320
C565        C  0.40216450  0.00364601  0.85709735    -0.06510
C566        C  0.40682282  0.48586751  0.88366535    -0.17640
C567        C  0.38389330  0.48307864  0.90616891     0.10690
C568        C  0.35617812  0.50000393  0.90314029    -0.06430
C569        C  0.35231158  0.01907225  0.87742120    -0.17670
C570        C  0.37490456  0.02134622  0.85463044     0.10720
S571        S  0.39052577  0.45586253  0.93681784    -0.32630
S572        S  0.36835949  0.04879177  0.82417197    -0.32640
H573        H  0.39955531  0.05763375  0.82147681     0.28730
H574        H  0.35986021  0.44506233  0.93774411     0.28720
H575        H  0.42804873  0.47304302  0.88636102     0.19320
H576        H  0.33154565  0.03286198  0.87527677     0.19320
C577        C  0.14689724  0.50022503  0.90048874    -0.06510
C578        C  0.12455396  0.47675491  0.90100338    -0.17640
C579        C  0.10242729  0.47424943  0.87766889     0.10690
C580        C  0.10173545  0.49644127  0.85389326    -0.06430
C581        C  0.12405758  0.01983993  0.85337431    -0.17670
C582        C  0.14655205  0.02202214  0.87627631     0.10720
S583        S  0.07712661  0.44121724  0.87846286    -0.32630
S584        S  0.17362346  0.05353194  0.87321303    -0.32640
H585        H  0.18132811  0.05519961  0.90438541     0.28730
H586        H  0.07466506  0.43821075  0.84646044     0.28720
H587        H  0.12515835  0.45950275  0.91902355     0.19320
H588        H  0.12364542  0.03692704  0.83518326     0.19320
C589        C  0.09921634  0.49800621  0.64583160    -0.06510
C590        C  0.11891028  0.02349509  0.64340770    -0.17640
C591        C  0.14096082  0.02550679  0.62005253     0.10690
C592        C  0.14394745  0.00116010  0.59897094    -0.06430
C593        C  0.12396657  0.47583080  0.60107614    -0.17670
C594        C  0.10181468  0.47383955  0.62444839     0.10720
S595        S  0.16394965  0.06009268  0.61781959    -0.32630
S596        S  0.07871818  0.43931206  0.62656469    -0.32640
H597        H  0.07438616  0.43946331  0.65850830     0.28730
H598        H  0.16739738  0.05993454  0.58578195     0.28720
H599        H  0.11672192  0.04226026  0.65953814     0.19320
H600        H  0.12636247  0.45697664  0.58507880     0.19320
C601        C  0.35379812  0.99956198  0.60206378    -0.06510
C602        C  0.37598996  0.02315931  0.60181621    -0.17640
C603        C  0.39827621  0.02529589  0.62500056     0.10690
C604        C  0.39903154  0.00278069  0.64845410    -0.06430
C605        C  0.37704000  0.47915068  0.64854006    -0.17670
C606        C  0.35461681  0.47712419  0.62558854     0.10720
S607        S  0.42386401  0.05811370  0.62429396    -0.32630
S608        S  0.32834508  0.44485664  0.62757840    -0.32640
H609        H  0.32130195  0.44344056  0.59625097     0.28730
H610        H  0.42706746  0.06053130  0.65628177     0.28720
H611        H  0.37521173  0.04070861  0.58407984     0.19320
H612        H  0.37770870  0.46169944  0.66637887     0.19320
C613        C  0.00229463  0.14513591  0.90043759    -0.06510
C614        C  0.01272892  0.11551967  0.90839976    -0.17640
C615        C  0.01328791  0.09154862  0.88698550     0.10690
C616        C  0.50343776  0.09705150  0.85642597    -0.06430
C617        C  0.49267977  0.12654928  0.84870349    -0.17670
C618        C  0.49197738  0.15036150  0.86998602     0.10720
S619        S  0.02802774  0.05504016  0.89997900    -0.32630
S620        S  0.47608967  0.18630794  0.85671909    -0.32640
H621        H  0.50534204  0.20049083  0.85545317     0.28730
H622        H  0.99897594  0.04061321  0.89757983     0.28720
H623        H  0.02081389  0.11096148  0.93149380     0.19320
H624        H  0.48433805  0.13124949  0.82572292     0.19320
C625        C  0.99700074  0.39737895  0.85284401    -0.06510
C626        C  0.02283431  0.37816330  0.85487963    -0.17640
C627        C  0.02476977  0.35526776  0.87731701     0.10690
C628        C  0.00062705  0.35226620  0.89903469    -0.06430
C629        C  0.47451835  0.37121983  0.89668727    -0.17670
C630        C  0.47196900  0.39295834  0.87309435     0.10720
S631        S  0.05863174  0.33097259  0.87614969    -0.32630
S632        S  0.43533282  0.41206801  0.86844846    -0.32640
H633        H  0.43806314  0.41827907  0.83690622     0.28730
H634        H  0.05557888  0.31652715  0.90469044     0.28720
H635        H  0.04171165  0.38103629  0.83874879     0.19320
H636        H  0.45533622  0.36795390  0.91238676     0.19320
C637        C  0.99945717  0.39935515  0.64633543    -0.06510
C638        C  0.00312491  0.40850940  0.61554188    -0.17640
C639        C  0.00504933  0.38703558  0.59170105     0.10690
C640        C  0.50248627  0.35508315  0.59828554    -0.06430
C641        C  0.49880270  0.34606887  0.62905323    -0.17670
C642        C  0.49691963  0.36736078  0.65277753     0.10720
S643        S  0.01180359  0.40239455  0.55383474    -0.32630
S644        S  0.48981196  0.35132527  0.69033093    -0.32640
H645        H  0.46319421  0.36932410  0.69477123     0.28730
H646        H  0.03728713  0.38308460  0.54833554     0.28720
H647        H  0.00533029  0.43270434  0.60987214     0.19320
H648        H  0.49645924  0.32194123  0.63495460     0.19320
C649        C  0.49724241  0.14465930  0.59951206    -0.06510
C650        C  0.48487692  0.15161316  0.62846083    -0.17640
C651        C  0.48346100  0.12965941  0.65196720     0.10690
C652        C  0.49622188  0.10003832  0.64742264    -0.06430
C653        C  0.00809011  0.09283978  0.61834453    -0.17670
C654        C  0.00819473  0.11435337  0.59435302     0.10720
S655        S  0.46338066  0.14068019  0.68638988    -0.32630
S656        S  0.02356202  0.10155063  0.55823840    -0.32640
H657        H  0.99477611  0.10401910  0.54337905     0.28730
H658        H  0.44759129  0.11248650  0.68937128     0.28720
H659        H  0.47532971  0.17423425  0.63268145     0.19320
H660        H  0.01762205  0.07019966  0.61419024     0.19320
O661        O  0.41332522  0.50145847  0.20051476    -0.75680
O662        O  0.45131695  0.50239998  0.16409589    -0.54580
C663        C  0.42284563  0.50248218  0.17254831     0.78050
O664        O  0.50411195  0.58333650  0.30386517    -0.60280
O665        O  0.50282288  0.54486242  0.33936940    -0.53310
C666        C  0.50377888  0.57342045  0.33178990     0.70070
O667        O  0.49938382  0.58567828  0.20014753    -0.74840
O668        O  0.99846899  0.54797059  0.16406398    -0.55400
C669        C  0.49798978  0.57640127  0.17217721     0.76070
O670        O  0.41486077  0.50179102  0.30418649    -0.59980
O671        O  0.45379169  0.00019790  0.33947471    -0.53100
C672        C  0.42509113  0.50190752  0.33196562     0.72660
Zr673      Zr  0.43555647  0.50022188  0.25195841     2.54710
O674        O  0.39773121  0.54160357  0.25147957    -0.80550
O675        O  0.39597026  0.96037114  0.25346119    -0.93960
Zr676      Zr  0.50188112  0.56338579  0.25162638     2.64680
O677        O  0.46191446  0.60270120  0.25402525    -0.98920
O678        O  0.04307276  0.60159889  0.25054162    -0.80980
O679        O  0.46798892  0.53254623  0.22205189    -0.84340
O680        O  0.46868167  0.53185701  0.28140799    -2.19050
O681        O  0.99829384  0.91198340  0.30118864    -0.67730
O682        O  0.49717085  0.94952248  0.33763177    -0.52290
C683        C  0.99716070  0.92126488  0.32906582     0.71040
O684        O  0.08635921  0.99813314  0.19825933    -0.60630
O685        O  0.04738873  0.49791316  0.16284620    -0.52610
C686        C  0.07608174  0.99780559  0.17054868     0.72850
O687        O  0.08750533  0.99829613  0.30170108    -0.72030
O688        O  0.04946171  0.99519225  0.33793928    -0.50710
C689        C  0.07797528  0.99644283  0.32963497     0.74230
O690        O  0.00114912  0.91414134  0.19877442    -0.67360
O691        O  0.99793896  0.95190962  0.16284259    -0.54560
C692        C  0.99941361  0.92335208  0.17083166     0.72610
Zr693      Zr  0.99916742  0.93479263  0.25032210     2.77540
O694        O  0.03781701  0.89410366  0.25027164    -0.98110
O695        O  0.45632441  0.89847944  0.24920405    -0.78930
Zr696      Zr  0.06530757  0.99810290  0.25020266     2.70070
O697        O  0.10368565  0.95722523  0.25021670    -0.80180
O698        O  0.10409944  0.53872404  0.24895043    -0.99260
Zr699      Zr  0.99964028  0.49960337  0.19194404     2.21500
Zr700      Zr  0.50109742  0.99789278  0.30993837     2.11130
O701        O  0.03321916  0.96523332  0.27999191    -2.47950
O702        O  0.03244569  0.96624358  0.22052023    -0.79970
O703        O  0.46709521  0.96634456  0.28097615    -0.72160
O704        O  0.03361581  0.53157394  0.22088738    -2.33120
O705        O  0.46628110  0.96721751  0.22130879    -2.29330
O706        O  0.03439560  0.53069204  0.28092898    -0.73920
H707        H  0.45655392  0.54464613  0.29485189     0.78070
H708        H  0.04623879  0.54413908  0.20750992     0.79160
H709        H  0.04575310  0.95212078  0.29288576     0.81390
H710        H  0.45326289  0.95491609  0.20818705     0.78990
H711        H  0.05854591  0.59330358  0.23606157     0.42030
H712        H  0.09853427  0.55239889  0.26617263     0.41000
H713        H  0.09331253  0.93985490  0.23980678     0.40680
H714        H  0.05119195  0.89845952  0.26815555     0.38610
H715        H  0.44106688  0.90692200  0.26382899     0.41740
H716        H  0.40002373  0.94758051  0.23518241     0.36530
H717        H  0.40819977  0.55873327  0.24059811     0.42640
H718        H  0.44918006  0.59715326  0.27208830     0.39060
H719        H  0.02628575  0.87527169  0.25609924     0.43980
H720        H  0.37650687  0.97132595  0.24862153     0.42700
H721        H  0.47299970  0.62162182  0.26020388     0.42840
H722        H  0.12344505  0.52855624  0.25562716     0.43190
O723        O  0.49841024  0.69766973  0.08559339    -0.75680
O724        O  0.99914266  0.66204844  0.04759718    -0.54580
C725        C  0.49843764  0.66963548  0.07597643     0.78050
O726        O  0.41448387  0.80191899  0.99597699    -0.60280
O727        O  0.45311365  0.83767694  0.99821009    -0.53310
C728        C  0.42452398  0.82985753  0.99635495     0.70070
O729        O  0.41410036  0.69773226  0.00224111    -0.74840
O730        O  0.45281800  0.66200273  0.00055090    -0.55400
C731        C  0.42425670  0.66989750  0.00189742     0.76070
O732        O  0.50291117  0.80226694  0.08414685    -0.59980
O733        O  0.50039301  0.83803194  0.04610045    -0.53100
C734        C  0.50214730  0.83037605  0.07450786     0.72660
Zr735      Zr  0.50008781  0.74988752  0.06416838     2.54710
O736        O  0.45867854  0.75176733  0.10188920    -0.80550
O737        O  0.03968329  0.74903096  0.10385083    -0.93960
Zr738      Zr  0.43554043  0.74976111  0.99956111     2.64680
O739        O  0.39717194  0.75144341  0.04038467    -0.98920
O740        O  0.39592608  0.74794254  0.45994584    -0.80980
O741        O  0.46748515  0.71996416  0.03238265    -0.84340
O742        O  0.46735773  0.77971543  0.03213221    -2.19050
O743        O  0.08706406  0.80175446  0.00437464    -0.67730
O744        O  0.04856254  0.83738560  0.99961372    -0.52290
C745        C  0.07706374  0.82960491  0.50248667     0.71040
O746        O  0.00338752  0.69772427  0.41479363    -0.60630
O747        O  0.00106705  0.66164674  0.45259304    -0.52610
C748        C  0.00222867  0.66969741  0.42414707     0.72850
O749        O  0.00082637  0.80025319  0.41316653    -0.72030
O750        O  0.50011287  0.83653824  0.45086359    -0.50710
C751        C  0.00059538  0.82817064  0.42261606     0.74230
O752        O  0.08713372  0.69791759  0.00181302    -0.67360
O753        O  0.04842720  0.66203321  0.00151967    -0.54560
C754        C  0.07700462  0.67005662  0.50212367     0.72610
Zr755      Zr  0.06562274  0.74980948  0.00055908     2.77540
O756        O  0.10336687  0.75094733  0.45914161    -0.98110
O757        O  0.10554304  0.74849931  0.03984964    -0.78930
Zr758      Zr  0.00093551  0.74925557  0.43583127     2.70070
O759        O  0.03932009  0.75015959  0.39505303    -0.80180
O760        O  0.45791350  0.74786897  0.39988275    -0.99260
Zr761      Zr  0.00063013  0.69077196  0.00009447     2.21500
Zr762      Zr  0.50064358  0.80859736  0.99919586     2.11130
O763        O  0.03393083  0.77927900  0.46722412    -2.47950
O764        O  0.03407981  0.71972606  0.46767165    -0.79970
O765        O  0.03324384  0.77967337  0.03251429    -0.72160
O766        O  0.46755245  0.71966871  0.46724289    -2.33120
O767        O  0.03324811  0.72006625  0.03302624    -2.29330
O768        O  0.46779687  0.77935571  0.46676786    -0.73920
H769        H  0.45476529  0.79318017  0.04446839     0.78070
H770        H  0.45503958  0.70628663  0.45470321     0.79160
H771        H  0.04669380  0.79254690  0.45470278     0.81390
H772        H  0.04569020  0.70686566  0.04589619     0.78990
H773        H  0.40331731  0.73232215  0.44523778     0.42030
H774        H  0.44366194  0.76411928  0.40705311     0.41000
H775        H  0.05940474  0.74918599  0.40588659     0.40680
H776        H  0.10051525  0.77121376  0.44908311     0.38610
H777        H  0.09524655  0.75656596  0.05841461     0.41740
H778        H  0.05258185  0.73087125  0.09910878     0.36530
H779        H  0.44297933  0.73713400  0.09416448     0.42640
H780        H  0.40202213  0.77032602  0.05203730     0.39060
H781        H  0.12357780  0.75258806  0.46966076     0.43980
H782        H  0.02846181  0.74325368  0.12281525     0.42700
H783        H  0.37750330  0.75616329  0.02976145     0.42840
H784        H  0.46655403  0.75606101  0.38046578     0.43190
O785        O  0.30304552  0.58606753  0.00156308    -0.75680
O786        O  0.33883831  0.54742650  0.00244062    -0.54580
C787        C  0.33098141  0.57591229  0.00196690     0.78050
O788        O  0.19694435  0.00150075  0.08638145    -0.60280
O789        O  0.16134935  0.49953399  0.04771901    -0.53310
C790        C  0.16902751  0.50066298  0.07616462     0.70070
O791        O  0.30122567  0.99973146  0.08806175    -0.74840
O792        O  0.33782048  0.00075076  0.05028335    -0.55400
C793        C  0.32941351  0.50001699  0.07855751     0.76070
O794        O  0.19894918  0.58665972  0.00049562    -0.59980
O795        O  0.16257735  0.54843628  0.99993330    -0.53100
C796        C  0.17087152  0.57686032  0.00007538     0.72660
Zr797      Zr  0.25077582  0.56471593  0.00068279     2.54710
O798        O  0.25061175  0.60386143  0.04037894    -0.80550
O799        O  0.25087108  0.60258425  0.45934789    -0.93960
Zr800      Zr  0.24948990  0.00066544  0.06583814     2.64680
O801        O  0.25050597  0.54171177  0.10360104    -0.98920
O802        O  0.24759641  0.96075656  0.10514410    -0.80980
O803        O  0.28016399  0.53309901  0.03418990    -0.84340
O804        O  0.22019121  0.53325191  0.03327531    -2.19050
O805        O  0.19947601  0.50047351  0.41481690    -0.67730
O806        O  0.16278091  0.49938471  0.45245526    -0.52290
C807        C  0.17126459  0.00009575  0.42414602     0.71040
O808        O  0.30229303  0.91406674  0.99986359    -0.60630
O809        O  0.33843398  0.95229465  0.00225748    -0.52610
C810        C  0.33040509  0.92385263  0.50082371     0.72850
O811        O  0.19782292  0.91458522  0.00696440    -0.72030
O812        O  0.16198309  0.95283823  0.00179479    -0.50710
C813        C  0.16981840  0.92454802  0.50526463     0.74230
O814        O  0.30333372  0.49930042  0.41638733    -0.67360
O815        O  0.33903921  0.99941201  0.45493712    -0.54560
C816        C  0.33133823  0.99923630  0.42644249     0.72610
Zr817      Zr  0.25109584  0.49957113  0.43724828     2.77540
O818        O  0.25179855  0.95857709  0.39942688    -0.98110
O819        O  0.25238164  0.53972289  0.39817860    -0.78930
Zr820      Zr  0.25011009  0.93552786  0.00245649     2.70070
O821        O  0.24658879  0.89688385  0.46242453    -0.80180
O822        O  0.25363509  0.89695941  0.04296375    -0.99260
Zr823      Zr  0.30963025  0.99995281  0.00226268     2.21500
Zr824      Zr  0.19101945  0.50034319  0.00059982     2.11130
O825        O  0.22061409  0.96698539  0.46887808    -2.47950
O826        O  0.28058053  0.96699834  0.46972443    -0.79970
O827        O  0.22085074  0.53288124  0.46796718    -0.72160
O828        O  0.27977349  0.96745469  0.03502605    -2.33120
O829        O  0.28086191  0.53255764  0.46876286    -2.29330
O830        O  0.21980354  0.96781379  0.03414130    -0.73920
H831        H  0.20678584  0.54601783  0.04548829     0.78070
H832        H  0.29293334  0.95479241  0.04773279     0.79160
H833        H  0.20734617  0.95422327  0.45645621     0.81390
H834        H  0.29438593  0.54500085  0.45617280     0.78990
H835        H  0.25823699  0.94294177  0.09586301     0.42030
H836        H  0.23705883  0.90248105  0.05757761     0.41000
H837        H  0.26032848  0.90464579  0.44594972     0.40680
H838        H  0.23332622  0.94592728  0.40409608     0.38610
H839        H  0.24374709  0.55805034  0.40846525     0.41740
H840        H  0.27020854  0.59868725  0.44787116     0.36530
H841        H  0.26344804  0.59506019  0.05703503     0.42640
H842        H  0.23459067  0.55649143  0.09658378     0.39060
H843        H  0.24680192  0.96895996  0.37978913     0.43980
H844        H  0.25446141  0.62247979  0.46971419     0.42700
H845        H  0.24167857  0.53232395  0.12239455     0.42840
H846        H  0.24633756  0.87770231  0.03331969     0.43190
C847        C  0.40143887  0.85484674  0.99547085    -0.06510
C848        C  0.40438364  0.87908946  0.01640300    -0.17640
C849        C  0.38157087  0.90173045  0.01890656     0.10690
C850        C  0.35522841  0.90053974  0.49970387    -0.06430
C851        C  0.35274905  0.87673675  0.47819981    -0.17670
C852        C  0.37572451  0.85428506  0.47552831     0.10720
S853        S  0.38669213  0.93029358  0.04832300    -0.32630
S854        S  0.37166437  0.82649277  0.44523402    -0.32640
H855        H  0.40352554  0.82379917  0.43931555     0.28730
H856        H  0.35522621  0.93206695  0.05591176     0.28720
H857        H  0.42401293  0.87969997  0.03184518     0.19320
H858        H  0.33310329  0.87607288  0.46279023     0.19320
C859        C  0.40133735  0.64505755  0.00268677    -0.06510
C860        C  0.39152945  0.63257530  0.47477203    -0.17640
C861        C  0.36913851  0.60936776  0.47395171     0.10690
C862        C  0.35589418  0.59879752  0.00164252    -0.06430
C863        C  0.36579275  0.61117606  0.02959406    -0.17670
C864        C  0.38865314  0.63397654  0.03044900     0.10720
S865        S  0.35765166  0.59508239  0.43687350    -0.32630
S866        S  0.40017608  0.64830027  0.06751164    -0.32640
H867        H  0.43053024  0.65644318  0.05939627     0.28730
H868        H  0.35138909  0.56483096  0.44641123     0.28960
H869        H  0.40132163  0.64107145  0.45346482     0.19320
H870        H  0.35564013  0.60301089  0.05085991     0.19320
C871        C  0.10017923  0.85450386  0.50334667    -0.06510
C872        C  0.12007210  0.85653230  0.02868305    -0.17640
C873        C  0.14206648  0.88011485  0.03069967     0.10690
C874        C  0.14485163  0.90160301  0.50645301    -0.06430
C875        C  0.12451594  0.90000169  0.48152731    -0.17670
C876        C  0.10246845  0.87659752  0.47959526     0.10720
S877        S  0.16501080  0.88229559  0.06515421    -0.32630
S878        S  0.07929231  0.87501768  0.44537849    -0.32640
H879        H  0.07968895  0.84277971  0.44390113     0.28730
H880        H  0.16899286  0.91441517  0.06452656     0.28720
H881        H  0.11801524  0.84001302  0.04727247     0.19320
H882        H  0.12670119  0.91634273  0.46278816     0.19320
C883        C  0.10008098  0.64545254  0.50247145    -0.06510
C884        C  0.11267595  0.63652905  0.47434228    -0.17640
C885        C  0.13599687  0.61441152  0.47290698     0.10690
C886        C  0.14642553  0.60021608  0.00015808    -0.06430
C887        C  0.13367283  0.60896711  0.02834602    -0.17670
C888        C  0.11071632  0.63158878  0.02988106     0.10720
S889        S  0.15112524  0.60535535  0.43557278    -0.32630
S890        S  0.09730187  0.64245663  0.06752421    -0.32640
H891        H  0.06946110  0.65635928  0.05869359     0.28730
H892        H  0.18120882  0.59788098  0.44503849     0.28720
H893        H  0.10465313  0.64733338  0.45334390     0.19320
H894        H  0.14194051  0.59836375  0.04933121     0.19320
C895        C  0.40211845  0.50364640  0.35710140    -0.06510
C896        C  0.40683278  0.98586882  0.38369078    -0.17640
C897        C  0.38390787  0.98308574  0.40620135     0.10690
C898        C  0.35619225  0.00001122  0.40317594    -0.06430
C899        C  0.35218500  0.51908460  0.37737237    -0.17670
C900        C  0.37485029  0.52136434  0.35462901     0.10720
S901        S  0.39054589  0.95587603  0.43685465    -0.32630
S902        S  0.36835610  0.54878546  0.32415809    -0.32640
H903        H  0.39955175  0.55762913  0.32146561     0.28730
H904        H  0.35988157  0.94507279  0.43778590     0.28720
H905        H  0.42805861  0.97304371  0.38638421     0.19320
H906        H  0.33146247  0.53292701  0.37525085     0.19320
C907        C  0.14691090  0.00021854  0.40046015    -0.06510
C908        C  0.12457023  0.97674613  0.40097492    -0.17640
C909        C  0.10243890  0.97424376  0.37764549     0.10690
C910        C  0.10174065  0.99644064  0.35387534    -0.06430
C911        C  0.12405087  0.51984278  0.35338988    -0.17670
C912        C  0.14654713  0.52202365  0.37628924     0.10720
S913        S  0.07713879  0.94121104  0.37843973    -0.32630
S914        S  0.17361940  0.55353265  0.37322440    -0.32640
H915        H  0.18132740  0.55519898  0.40439605     0.28730
H916        H  0.07467035  0.93820935  0.34643738     0.28720
H917        H  0.12517845  0.95949164  0.41899280     0.19320
H918        H  0.12363745  0.53693050  0.33519938     0.19320
C919        C  0.09920515  0.99800875  0.14582367    -0.06510
C920        C  0.11897261  0.52348921  0.14344492    -0.17640
C921        C  0.14102983  0.52549754  0.12009542     0.10690
C922        C  0.14401668  0.50115112  0.09901366    -0.06430
C923        C  0.12395986  0.97583157  0.10107095    -0.17670
C924        C  0.10180618  0.97384097  0.12444195     0.10720
S925        S  0.16402276  0.56008093  0.11786582    -0.32630
S926        S  0.07871181  0.93931222  0.12655944    -0.32640
H927        H  0.07437841  0.93946506  0.15850283     0.28730
H928        H  0.16745869  0.55993170  0.08582657     0.28720
H929        H  0.11678307  0.54225457  0.15957496     0.19320
H930        H  0.12635723  0.95697665  0.08507472     0.19320
C931        C  0.35387347  0.49955815  0.10201120    -0.06510
C932        C  0.37607060  0.52315089  0.10175958    -0.17640
C933        C  0.39835134  0.52529225  0.12494947     0.10690
C934        C  0.39909369  0.50278771  0.14841421    -0.06430
C935        C  0.37702900  0.97915336  0.14854869    -0.17670
C936        C  0.35460857  0.97712552  0.12559477     0.10720
S937        S  0.42394742  0.55810350  0.12423559    -0.32630
S938        S  0.32833893  0.94485615  0.12758117    -0.32640
H939        H  0.32130064  0.94343962  0.09625265     0.28730
H940        H  0.42713788  0.56053657  0.15622341     0.28720
H941        H  0.37529847  0.54069504  0.08401789     0.19320
H942        H  0.37769690  0.96170219  0.16638760     0.19320
C943        C  0.00229085  0.64513467  0.40043947    -0.06510
C944        C  0.01272690  0.61551914  0.40840223    -0.17640
C945        C  0.01328841  0.59154813  0.38698803     0.10690
C946        C  0.50343938  0.59705055  0.35642824    -0.06430
C947        C  0.49268016  0.62654760  0.34870498    -0.17670
C948        C  0.49197543  0.65035982  0.36998727     0.10720
S949        S  0.02803127  0.55504076  0.39998113    -0.32630
S950        S  0.47608698  0.68630549  0.35671914    -0.32640
H951        H  0.50533888  0.70048946  0.35545451     0.28730
H952        H  0.99898064  0.54061152  0.39758214     0.28720
H953        H  0.02081149  0.61096158  0.43149653     0.19320
H954        H  0.48433943  0.63124712  0.32572390     0.19320
C955        C  0.99699994  0.89737771  0.35284359    -0.06510
C956        C  0.02283161  0.87815946  0.35487817    -0.17640
C957        C  0.02476530  0.85526338  0.37731520     0.10690
C958        C  0.00062298  0.85226445  0.39903389    -0.06430
C959        C  0.47451656  0.87122095  0.39668743    -0.17670
C960        C  0.47196864  0.89295951  0.37309455     0.10720
S961        S  0.05862454  0.83096445  0.37614582    -0.32630
S962        S  0.43533414  0.91207259  0.36844932    -0.32640
H963        H  0.43806297  0.91827964  0.33690617     0.28730
H964        H  0.05557089  0.81651753  0.40468571     0.28720
H965        H  0.04170862  0.88103067  0.33874665     0.19320
H966        H  0.45533456  0.86795707  0.41238748     0.19320
C967        C  0.99945284  0.89935588  0.14633551    -0.06510
C968        C  0.00312140  0.90851040  0.11554213    -0.17640
C969        C  0.00504943  0.88703666  0.09170148     0.10690
C970        C  0.50248910  0.85508403  0.09828594    -0.06430
C971        C  0.49880486  0.84606951  0.12905348    -0.17670
C972        C  0.49691829  0.86736131  0.15277758     0.10720
S973        S  0.01180452  0.90239612  0.05383549    -0.32630
S974        S  0.48981019  0.85132524  0.19033068    -0.32640
H975        H  0.46319132  0.86932260  0.19477029     0.28730
H976        H  0.03728952  0.88308776  0.04833729     0.28720
H977        H  0.00532479  0.93270553  0.10987247     0.19320
H978        H  0.49646345  0.82194166  0.13495484     0.19320
C979        C  0.49724944  0.64466006  0.09951185    -0.06510
C980        C  0.48488533  0.65161313  0.12846137    -0.17640
C981        C  0.48347516  0.62966005  0.15196873     0.10690
C982        C  0.49624225  0.60004143  0.14742469    -0.06430
C983        C  0.00810738  0.59284327  0.11834529    -0.17670
C984        C  0.00820428  0.61435512  0.09435245     0.10720
S985        S  0.46339339  0.64067794  0.18639151    -0.32630
S986        S  0.02356385  0.60155072  0.05823518    -0.32640
H987        H  0.99477564  0.60402209  0.04338064     0.28730
H988        H  0.44760805  0.61248194  0.18937249     0.28720
H989        H  0.47533506  0.67423297  0.13268190     0.19320
H990        H  0.01764190  0.57020434  0.11419046     0.19320
O991        O  0.41332505  0.50145816  0.70051453    -0.75680
O992        O  0.45131685  0.50239962  0.66409576    -0.54580
C993        C  0.42284546  0.50248176  0.67254806     0.78050
O994        O  0.50411149  0.58333691  0.80386528    -0.60280
O995        O  0.50282270  0.54486275  0.83936941    -0.53310
C996        C  0.50377854  0.57342082  0.83179001     0.70070
O997        O  0.49938402  0.58567792  0.70014755    -0.74840
O998        O  0.99846904  0.54797016  0.66406409    -0.55400
C999        C  0.49798986  0.57640081  0.67217727     0.76070
O1000       O  0.41486088  0.50179121  0.80418628    -0.59980
O1001       O  0.45379393  0.00020408  0.83947055    -0.53100
C1002       C  0.42509130  0.50190783  0.83196537     0.72660
Zr1003     Zr  0.43555643  0.50022193  0.75195828     2.54710
O1004       O  0.39773127  0.54160371  0.75147928    -0.80550
O1005       O  0.39596125  0.96036701  0.75348781    -0.93960
Zr1006     Zr  0.50188115  0.56338580  0.75162654     2.64680
O1007       O  0.46191454  0.60270127  0.75402513    -0.98920
O1008       O  0.04307292  0.60159880  0.75054174    -0.80980
O1009       O  0.46798894  0.53254628  0.72205192    -0.84340
O1010       O  0.46868167  0.53185699  0.78140799    -2.19050
O1011       O  0.99828898  0.91198265  0.80118966    -0.67730
O1012       O  0.49717035  0.94952273  0.83763206    -0.52290
C1013       C  0.99715868  0.92126496  0.82906668     0.71040
O1014       O  0.08633054  0.99812998  0.69824165    -0.60630
O1015       O  0.04738861  0.49791283  0.66284669    -0.52610
C1016       C  0.07604623  0.99780179  0.67053290     0.72850
O1017       O  0.08750253  0.99829524  0.80169637    -0.72030
O1018       O  0.04946170  0.99519102  0.83793730    -0.50710
C1019       C  0.07797511  0.99644138  0.82963234     0.74230
O1020       O  0.00114109  0.91413955  0.69877405    -0.67360
O1021       O  0.99791344  0.95190630  0.66284204    -0.54560
C1022       C  0.99939802  0.92334942  0.67083138     0.72610
Zr1023     Zr  0.99915861  0.93479008  0.75032239     2.77540
O1024       O  0.03781047  0.89410327  0.75026914    -0.98110
O1025       O  0.45631800  0.89847395  0.74920717    -0.78930
Zr1026     Zr  0.06529717  0.99810210  0.75019464     2.70070
O1027       O  0.10367678  0.95722594  0.75020086    -0.80180
O1028       O  0.10409953  0.53872386  0.74895061    -0.99260
Zr1029     Zr  0.99964016  0.49960315  0.69194427     2.21500
Zr1030     Zr  0.50109669  0.99789228  0.80993737     2.11130
O1031       O  0.03321405  0.96523174  0.77998791    -2.47950
O1032       O  0.03242753  0.96624523  0.72051615    -0.79970
O1033       O  0.46709124  0.96634227  0.78098070    -0.72160
O1034       O  0.03361576  0.53157373  0.72088765    -2.33120
O1035       O  0.46626382  0.96721053  0.72131316    -2.29330
O1036       O  0.03439571  0.53069220  0.78092925    -0.73920
H1037       H  0.45655390  0.54464617  0.79485183     0.78070
H1038       H  0.04623877  0.54413882  0.70751016     0.79160
H1039       H  0.04574988  0.95211984  0.79288061     0.81390
H1040       H  0.45324352  0.95490785  0.70819460     0.78990
H1041       H  0.05854612  0.59330335  0.73606183     0.42030
H1042       H  0.09853446  0.55239876  0.76617281     0.41000
H1043       H  0.09330138  0.93985457  0.73979489     0.40680
H1044       H  0.05118612  0.89845954  0.76815242     0.38610
H1045       H  0.44106111  0.90691527  0.76383348     0.41740
H1046       H  0.40001126  0.94757088  0.73521213     0.36530
H1047       H  0.40819987  0.55873335  0.74059776     0.42640
H1048       H  0.44917986  0.59715323  0.77208796     0.39060
H1049       H  0.02628052  0.87527061  0.75609708     0.43980
H1050       H  0.37649689  0.97132033  0.74864865     0.42700
H1051       H  0.47299972  0.62162183  0.76020404     0.42840
H1052       H  0.12344513  0.52855602  0.75562729     0.43190
O1053       O  0.49840477  0.69766827  0.58559278    -0.75680
O1054       O  0.99913706  0.66204700  0.54759663    -0.54580
C1055       C  0.49843277  0.66963404  0.57597585     0.78050
O1056       O  0.41447232  0.80191982  0.49598807    -0.60280
O1057       O  0.45310136  0.83767856  0.49821964    -0.53310
C1058       C  0.42451135  0.82985890  0.49636846     0.70070
O1059       O  0.41409281  0.69773163  0.50224164    -0.74840
O1060       O  0.45281109  0.66200257  0.50055090    -0.55400
C1061       C  0.42424987  0.66989717  0.50189774     0.76070
O1062       O  0.50290645  0.80226496  0.58414666    -0.59980
O1063       O  0.50038561  0.83803041  0.54610086    -0.53100
C1064       C  0.50214213  0.83037411  0.57450802     0.72660
Zr1065     Zr  0.50008002  0.74988605  0.56416807     2.54710
O1066       O  0.45867172  0.75176500  0.60188998    -0.80550
O1067       O  0.03967637  0.74903017  0.60384965    -0.93960
Zr1068     Zr  0.43553095  0.74976088  0.49956170     2.64680
O1069       O  0.39716020  0.75143800  0.54038340    -0.98920
O1070       O  0.39593313  0.74793948  0.95994781    -0.80980
O1071       O  0.46747726  0.71996339  0.53238202    -0.84340
O1072       O  0.46734818  0.77971391  0.53213345    -2.19050
O1073       O  0.08705229  0.80175400  0.50437262    -0.67730
O1074       O  0.04854947  0.83738410  0.49961239    -0.52290
C1075       C  0.07707680  0.82960596  0.00248897     0.71040
O1076       O  0.00339502  0.69772501  0.91479332    -0.60630
O1077       O  0.00107278  0.66164783  0.95259304    -0.52610
C1078       C  0.00223449  0.66969827  0.92414699     0.72850
O1079       O  0.00083300  0.80025454  0.91316738    -0.72030
O1080       O  0.50012324  0.83653957  0.95086455    -0.50710
C1081       C  0.00060258  0.82817199  0.92261707     0.74230
O1082       O  0.08712663  0.69791722  0.50181206    -0.67360
O1083       O  0.04842084  0.66203223  0.50151942    -0.54560
C1084       C  0.07701092  0.67005733  0.00212426     0.72610
Zr1085     Zr  0.06561344  0.74980868  0.50055815     2.77540
O1086       O  0.10337652  0.75094733  0.95914281    -0.98110
O1087       O  0.10553374  0.74849993  0.53984877    -0.78930
Zr1088     Zr  0.00094523  0.74925631  0.93583123     2.70070
O1089       O  0.03932753  0.75016038  0.89505090    -0.80180
O1090       O  0.45792148  0.74787090  0.89988484    -0.99260
Zr1091     Zr  0.00062290  0.69077106  0.50009421     2.21500
Zr1092     Zr  0.50063141  0.80859670  0.49919580     2.11130
O1093       O  0.03394181  0.77927958  0.96722354    -2.47950
O1094       O  0.03408845  0.71972682  0.96767273    -0.79970
O1095       O  0.03323371  0.77967260  0.53251272    -0.72160
O1096       O  0.46756130  0.71966940  0.96724205    -2.33120
O1097       O  0.03324050  0.72006510  0.53302606    -2.29330
O1098       O  0.46780829  0.77935588  0.96676894    -0.73920
H1099       H  0.45475603  0.79317806  0.54447058     0.78070
H1100       H  0.45504827  0.70628748  0.95470235     0.79160
H1101       H  0.04670499  0.79254736  0.95470228     0.81390
H1102       H  0.04568308  0.70686471  0.54589573     0.78990
H1103       H  0.40332613  0.73232185  0.94523770     0.42030
H1104       H  0.44367034  0.76412107  0.90705633     0.41000
H1105       H  0.05941311  0.74919921  0.90588384     0.40680
H1106       H  0.10052528  0.77121373  0.94908414     0.38610
H1107       H  0.09523738  0.75656768  0.55841333     0.41740
H1108       H  0.05257546  0.73087097  0.59910706     0.36530
H1109       H  0.44297283  0.73713099  0.59416592     0.42640
H1110       H  0.40201361  0.77031591  0.55204227     0.39060
H1111       H  0.12358739  0.75258786  0.96966211     0.43980
H1112       H  0.02845553  0.74325225  0.62281425     0.42700
H1113       H  0.37749315  0.75616521  0.52976050     0.42840
H1114       H  0.46656100  0.75606336  0.88046760     0.43190
O1115       O  0.30304300  0.58606576  0.50156308    -0.75680
O1116       O  0.33883596  0.54742485  0.50244081    -0.54580
C1117       C  0.33097879  0.57591045  0.50196703     0.78050
O1118       O  0.19688459  0.00150398  0.58635869    -0.60280
O1119       O  0.16134786  0.49953339  0.54771941    -0.53310
C1120       C  0.16902633  0.50066238  0.57616493     0.70070
O1121       O  0.30116140  0.99972687  0.58809312    -0.74840
O1122       O  0.33776974  0.00075165  0.55032668    -0.55400
C1123       C  0.32941238  0.50001612  0.57855734     0.76070
O1124       O  0.19894658  0.58665971  0.50049580    -0.59980
O1125       O  0.16257488  0.54843621  0.49993352    -0.53100
C1126       C  0.17086881  0.57686042  0.50007560     0.72660
Zr1127     Zr  0.25077327  0.56471509  0.50068274     2.54710
O1128       O  0.25061011  0.60386061  0.54037887    -0.80550
O1129       O  0.25087287  0.60258508  0.95934794    -0.93960
Zr1130     Zr  0.24944027  0.00066258  0.56584058     2.64680
O1131       O  0.25050515  0.54171083  0.60360124    -0.98920
O1132       O  0.24751124  0.96074528  0.60513650    -0.80980
O1133       O  0.28016195  0.53309832  0.53418972    -0.84340
O1134       O  0.22018921  0.53325101  0.53327548    -2.19050
O1135       O  0.19947728  0.50047407  0.91481691    -0.67730
O1136       O  0.16278247  0.49938512  0.95245547    -0.52290
C1137       C  0.17125764  0.00009872  0.92416313     0.71040
O1138       O  0.30227500  0.91406706  0.49987841    -0.60630
O1139       O  0.33841631  0.95229354  0.50229149    -0.52610
C1140       C  0.33042303  0.92385344  0.00079748     0.72850
O1141       O  0.19780320  0.91458700  0.50696125    -0.72030
O1142       O  0.16196430  0.95283850  0.50177436    -0.50710
C1143       C  0.16983764  0.92454670  0.00527629     0.74230
O1144       O  0.30333492  0.49930117  0.91638727    -0.67360
O1145       O  0.33906904  0.99940737  0.95492465    -0.54560
C1146       C  0.33141595  0.99924074  0.92643149     0.72610
Zr1147     Zr  0.25109736  0.49957203  0.93724827     2.77540
O1148       O  0.25178011  0.95857619  0.89942239    -0.98110
O1149       O  0.25238262  0.53972403  0.89817881    -0.78930
Zr1150     Zr  0.25009085  0.93552755  0.50245781     2.70070
O1151       O  0.24660653  0.89687802  0.96242930    -0.80180
O1152       O  0.25361143  0.89695158  0.54295827    -0.99260
Zr1153     Zr  0.30961234  0.99995279  0.50228669     2.21500
Zr1154     Zr  0.19101714  0.50034259  0.50059989     2.11130
O1155       O  0.22062336  0.96698570  0.96888488    -2.47950
O1156       O  0.28058900  0.96699795  0.96971161    -0.79970
O1157       O  0.22085279  0.53288222  0.96796733    -0.72160
O1158       O  0.27974012  0.96745509  0.53503861    -2.33120
O1159       O  0.28086397  0.53255839  0.96876276    -2.29330
O1160       O  0.21976968  0.96781031  0.53413270    -0.73920
H1161       H  0.20678393  0.54601698  0.54548849     0.78070
H1162       H  0.29289447  0.95479256  0.54775052     0.79160
H1163       H  0.20735063  0.95422336  0.95646792     0.81390
H1164       H  0.29438792  0.54500164  0.95617266     0.78990
H1165       H  0.25818513  0.94294165  0.59587168     0.42030
H1166       H  0.23703842  0.90247488  0.55757510     0.41000
H1167       H  0.26033223  0.90464594  0.94594577     0.40680
H1168       H  0.23330961  0.94592692  0.90410030     0.38610
H1169       H  0.24374794  0.55805135  0.90846560     0.41740
H1170       H  0.27021047  0.59868854  0.94787129     0.36530
H1171       H  0.26344713  0.59505956  0.55703451     0.42640
H1172       H  0.23459015  0.55649079  0.59658396     0.39060
H1173       H  0.24677471  0.96895946  0.87978716     0.43980
H1174       H  0.25446266  0.62248071  0.96971424     0.42700
H1175       H  0.24167752  0.53232311  0.62239469     0.42840
H1176       H  0.24630797  0.87769781  0.53331201     0.43190
C1177       C  0.40142441  0.85484767  0.49549072    -0.06510
C1178       C  0.40436483  0.87908468  0.51643051    -0.17640
C1179       C  0.38154984  0.90172391  0.51893797     0.10690
C1180       C  0.35524645  0.90054149  0.99967687    -0.06430
C1181       C  0.35276310  0.87673320  0.97817909    -0.17670
C1182       C  0.37573726  0.85427993  0.97551080     0.10720
S1183       S  0.38666364  0.93027858  0.54836410    -0.32630
S1184       S  0.37167323  0.82648007  0.94522387    -0.32640
H1185       H  0.40353382  0.82378374  0.93930348     0.28730
H1186       H  0.35519603  0.93204832  0.55594889     0.28720
H1187       H  0.42399232  0.87969179  0.53187505     0.19320
H1188       H  0.33311509  0.87606598  0.96277251     0.19320
C1189       C  0.40133151  0.64505706  0.50268708    -0.06510
C1190       C  0.39153491  0.63257555  0.97477186    -0.17640
C1191       C  0.36914263  0.60936901  0.97395156     0.10690
C1192       C  0.35589108  0.59879550  0.50164276    -0.06430
C1193       C  0.36578956  0.61117356  0.52959446    -0.17670
C1194       C  0.38864886  0.63397486  0.53044944     0.10720
S1195       S  0.35765525  0.59508413  0.93687330    -0.32630
S1196       S  0.40017236  0.64829806  0.56751214    -0.32640
H1197       H  0.43052581  0.65644292  0.55939610     0.28730
H1198       H  0.35139022  0.56483320  0.94641099     0.28960
H1199       H  0.40132772  0.64107090  0.95346463     0.19320
H1200       H  0.35563765  0.60300749  0.55086031     0.19320
C1201       C  0.10019393  0.85450457  0.00335141    -0.06510
C1202       C  0.12005682  0.85653484  0.52867816    -0.17640
C1203       C  0.14204919  0.88011895  0.53069260     0.10690
C1204       C  0.14487032  0.90160133  0.00646234    -0.06430
C1205       C  0.12453459  0.90000301  0.98153633    -0.17670
C1206       C  0.10248534  0.87660028  0.97960192     0.10720
S1207       S  0.16499256  0.88230518  0.56514735    -0.32630
S1208       S  0.07930978  0.87502526  0.94538447    -0.32640
H1209       H  0.07970197  0.84278733  0.94390483     0.28730
H1210       H  0.16896822  0.91442556  0.56451796     0.28720
H1211       H  0.11800085  0.84001716  0.54726912     0.19320
H1212       H  0.12672090  0.91634569  0.96279870     0.19320
C1213       C  0.10008623  0.64545309  0.00247181    -0.06510
C1214       C  0.11268037  0.63652945  0.97434244    -0.17640
C1215       C  0.13600031  0.61441122  0.97290689     0.10690
C1216       C  0.14642237  0.60021643  0.50015818    -0.06430
C1217       C  0.13366911  0.60896747  0.52834594    -0.17670
C1218       C  0.11071186  0.63158869  0.52988078     0.10720
S1219       S  0.15112766  0.60535424  0.93557250    -0.32630
S1220       S  0.09729768  0.64245665  0.56752397    -0.32640
H1221       H  0.06945741  0.65636038  0.55869351     0.28730
H1222       H  0.18121114  0.59787883  0.94503771     0.28720
H1223       H  0.10465762  0.64733410  0.95334419     0.19320
H1224       H  0.14193695  0.59836445  0.54933125     0.19320
C1225       C  0.40211880  0.50364681  0.85710106    -0.06510
C1226       C  0.40692444  0.98583578  0.88364109    -0.17640
C1227       C  0.38401398  0.98307912  0.90619206     0.10690
C1228       C  0.35634196  0.00009643  0.90324028    -0.06430
C1229       C  0.35218571  0.51908538  0.87737222    -0.17670
C1230       C  0.37485079  0.52136495  0.85462875     0.10720
S1231       S  0.39054799  0.95584124  0.93683821    -0.32630
S1232       S  0.36835655  0.54878602  0.82415779    -0.32640
H1233       H  0.39955223  0.55762953  0.82146510     0.28730
H1234       H  0.35985828  0.94509085  0.93770963     0.28720
H1235       H  0.42815346  0.97298965  0.88629205     0.19320
H1236       H  0.33146324  0.53292793  0.87525087     0.19320
C1237       C  0.14689945  0.00022493  0.90047773    -0.06510
C1238       C  0.12455569  0.97675514  0.90099082    -0.17640
C1239       C  0.10243075  0.97424880  0.87765426     0.10690
C1240       C  0.10174083  0.99643884  0.85387642    -0.06430
C1241       C  0.12405126  0.51984304  0.85339017    -0.17670
C1242       C  0.14654785  0.52202389  0.87628927     0.10720
S1243       S  0.07712843  0.94121788  0.87844961    -0.32630
S1244       S  0.17362024  0.55353272  0.87322377    -0.32640
H1245       H  0.18132933  0.55519885  0.90439514     0.28730
H1246       H  0.07466720  0.93821005  0.84644728     0.28720
H1247       H  0.12515790  0.95950401  0.91901205     0.19320
H1248       H  0.12363774  0.53693068  0.83519960     0.19320
C1249       C  0.09916158  0.99800799  0.64580127    -0.06510
C1250       C  0.11897244  0.52348863  0.64344558    -0.17640
C1251       C  0.14102942  0.52549693  0.62009593     0.10690
C1252       C  0.14401584  0.50115058  0.59901407    -0.06430
C1253       C  0.12390205  0.97583753  0.60103746    -0.17670
C1254       C  0.10175754  0.97384215  0.62441668     0.10720
S1255       S  0.16402260  0.56008015  0.61786622    -0.32630
S1256       S  0.07867135  0.93930861  0.62654269    -0.32640
H1257       H  0.07434913  0.93946091  0.65848759     0.28730
H1258       H  0.16745746  0.55993137  0.58582684     0.28720
H1259       H  0.11678312  0.54225393  0.65957571     0.19320
H1260       H  0.12629880  0.95698248  0.58504128     0.19320
C1261       C  0.35387269  0.49955735  0.60201095    -0.06510
C1262       C  0.37606985  0.52315013  0.60175922    -0.17640
C1263       C  0.39835081  0.52529156  0.62494901     0.10690
C1264       C  0.39909344  0.50278707  0.64841382    -0.06430
C1265       C  0.37697718  0.97914451  0.64858221    -0.17670
C1266       C  0.35454654  0.97712427  0.62563678     0.10720
S1267       S  0.42394677  0.55810291  0.62423497    -0.32630
S1268       S  0.32827227  0.94485880  0.62762510    -0.32640
H1269       H  0.32125060  0.94343313  0.59629285     0.28730
H1270       H  0.42713747  0.56053601  0.65622277     0.28720
H1271       H  0.37529756  0.54069427  0.58401754     0.19320
H1272       H  0.37765186  0.96168847  0.66641609     0.19320
C1273       C  0.00229452  0.64513534  0.90043955    -0.06510
C1274       C  0.01272910  0.61551930  0.90840225    -0.17640
C1275       C  0.01328886  0.59154813  0.88698820     0.10690
C1276       C  0.50343950  0.59705085  0.85642851    -0.06430
C1277       C  0.49268096  0.62654824  0.84870551    -0.17670
C1278       C  0.49197770  0.65036058  0.86998780     0.10720
S1279       S  0.02802959  0.55504000  0.89998156    -0.32630
S1280       S  0.47608949  0.68630663  0.85672044    -0.32640
H1281       H  0.50534175  0.70048968  0.85545379     0.28730
H1282       H  0.99897832  0.54061214  0.89758173     0.28720
H1283       H  0.02081395  0.61096147  0.93149641     0.19320
H1284       H  0.48433974  0.63124796  0.82572465     0.19320
C1285       C  0.99700007  0.89737843  0.85284487    -0.06510
C1286       C  0.02283381  0.87816301  0.85487982    -0.17640
C1287       C  0.02476987  0.85526753  0.87731716     0.10690
C1288       C  0.00062746  0.85226584  0.89903519    -0.06430
C1289       C  0.47451876  0.87121939  0.89668842    -0.17670
C1290       C  0.47196895  0.89295790  0.87309570     0.10720
S1291       S  0.05863216  0.83097280  0.87614938    -0.32630
S1292       S  0.43533310  0.91206756  0.86845087    -0.32640
H1293       H  0.43806157  0.91827789  0.83690837     0.28730
H1294       H  0.05557910  0.81652602  0.90468945     0.28720
H1295       H  0.04171069  0.88103610  0.83874847     0.19320
H1296       H  0.45533699  0.86795348  0.91238836     0.19320
C1297       C  0.99944101  0.89935315  0.64633547    -0.06510
C1298       C  0.00310828  0.90850808  0.61554205    -0.17640
C1299       C  0.00504147  0.88703449  0.59170177     0.10690
C1300       C  0.50248472  0.85508165  0.59828635    -0.06430
C1301       C  0.49880260  0.84606663  0.62905402    -0.17670
C1302       C  0.49691280  0.86735826  0.65277798     0.10720
S1303       S  0.01179977  0.90239429  0.55383643    -0.32630
S1304       S  0.48980788  0.85132156  0.69033139    -0.32640
H1305       H  0.46318804  0.86931704  0.69477286     0.28730
H1306       H  0.03728406  0.88308470  0.54833917     0.28720
H1307       H  0.00530771  0.93270353  0.60987225     0.19320
H1308       H  0.49646489  0.82193848  0.63495556     0.19320
C1309       C  0.49724624  0.64465883  0.59951145    -0.06510
C1310       C  0.48488254  0.65161180  0.62846114    -0.17640
C1311       C  0.48347376  0.62965901  0.65196877     0.10690
C1312       C  0.49624182  0.60004082  0.64742477    -0.06430
C1313       C  0.00810695  0.59284285  0.61834533    -0.17670
C1314       C  0.00820252  0.61435443  0.59435226     0.10720
S1315       S  0.46339238  0.64067665  0.68639184    -0.32630
S1316       S  0.02356225  0.60155047  0.55823489    -0.32640
H1317       H  0.99477374  0.60402033  0.54338069     0.28730
H1318       H  0.44760751  0.61248041  0.68937305     0.28720
H1319       H  0.47533141  0.67423129  0.63268161     0.19320
H1320       H  0.01764233  0.57020426  0.61419062     0.19320
O1321       O  0.91331546  0.00145987  0.20052440    -0.75680
O1322       O  0.95130451  0.00240078  0.16410234    -0.54580
C1323       C  0.92283408  0.00248379  0.17255710     0.78050
O1324       O  0.00410809  0.08333622  0.30386584    -0.60280
O1325       O  0.00282241  0.04486234  0.33937038    -0.53310
C1326       C  0.00377735  0.07342036  0.33179064     0.70070
O1327       O  0.99937736  0.08567808  0.20014832    -0.74840
O1328       O  0.49845983  0.04797050  0.16406471    -0.55400
C1329       C  0.99798295  0.07640121  0.17217791     0.76070
O1330       O  0.91485969  0.00178738  0.30420305    -0.59980
O1331       O  0.95378818  0.50020234  0.33946322    -0.53100
C1332       C  0.92509331  0.00190285  0.33198177     0.72660
Zr1333     Zr  0.93554853  0.00022094  0.25196837     2.54710
O1334       O  0.89772306  0.04160251  0.25149554    -0.80550
O1335       O  0.89597882  0.46037141  0.25345118    -0.93960
Zr1336     Zr  0.00187331  0.06338542  0.25162744     2.64680
O1337       O  0.96190715  0.10270128  0.25402581    -0.98920
O1338       O  0.54306557  0.10159791  0.25054347    -0.80980
O1339       O  0.96797901  0.03254437  0.22205716    -0.84340
O1340       O  0.96867667  0.03185692  0.28141338    -2.19050
O1341       O  0.49829693  0.41198406  0.30118855    -0.67730
O1342       O  0.99716891  0.44952348  0.33763112    -0.52290
C1343       C  0.49716076  0.42126576  0.32906558     0.71040
O1344       O  0.58636849  0.49813156  0.19826627    -0.60630
O1345       O  0.54737682  0.99791381  0.16284246    -0.52610
C1346       C  0.57609274  0.49780415  0.17055483     0.72850
O1347       O  0.58750712  0.49829486  0.30171354    -0.72030
O1348       O  0.54945864  0.49519113  0.33794660    -0.50710
C1349       C  0.57797355  0.49644154  0.32964683     0.74230
O1350       O  0.50115520  0.41414079  0.19877409    -0.67360
O1351       O  0.49794874  0.45190928  0.16284208    -0.54560
C1352       C  0.49942076  0.42335163  0.17083129     0.72610
Zr1353     Zr  0.49917386  0.43479262  0.25032156     2.77540
O1354       O  0.53782208  0.39410241  0.25027130    -0.98110
O1355       O  0.95632957  0.39848085  0.24920446    -0.78930
Zr1356     Zr  0.56531533  0.49810245  0.25020961     2.70070
O1357       O  0.60369404  0.45722536  0.25022590    -0.80180
O1358       O  0.60409119  0.03872493  0.24894061    -0.99260
Zr1359     Zr  0.49962953  0.99960344  0.19194508     2.21500
Zr1360     Zr  0.00109929  0.49789321  0.30993696     2.11130
O1361       O  0.53322357  0.46523266  0.27999468    -2.47950
O1362       O  0.53245466  0.46624438  0.22052338    -0.79970
O1363       O  0.96709925  0.46634585  0.28097128    -0.72160
O1364       O  0.53360609  0.03157510  0.22088482    -2.33120
O1365       O  0.96629034  0.46721661  0.22130384    -2.29330
O1366       O  0.53439058  0.03069135  0.28092628    -0.73920
H1367       H  0.95655015  0.04464565  0.29485876     0.78070
H1368       H  0.54622806  0.04414035  0.20750652     0.79160
H1369       H  0.54575599  0.45212012  0.29289002     0.81390
H1370       H  0.95327300  0.45491525  0.20818121     0.78990
H1371       H  0.55853761  0.09330362  0.23606166     0.42030
H1372       H  0.59852816  0.05239892  0.26616417     0.41000
H1373       H  0.59332198  0.43985508  0.23981487     0.40680
H1374       H  0.55119656  0.39845758  0.26815571     0.38610
H1375       H  0.94107159  0.40692515  0.26382794     0.41740
H1376       H  0.90003114  0.44758202  0.23517130     0.36530
H1377       H  0.90818869  0.05873114  0.24060962     0.42640
H1378       H  0.94917338  0.09715400  0.27208950     0.39060
H1379       H  0.52628998  0.37527076  0.25609830     0.43980
H1380       H  0.87651494  0.47132627  0.24861363     0.42700
H1381       H  0.97299281  0.12162197  0.26020350     0.42840
H1382       H  0.62343779  0.02855703  0.25561432     0.43190
O1383       O  0.99841095  0.19766922  0.08559277    -0.75680
O1384       O  0.49914380  0.16204765  0.04759683    -0.54580
C1385       C  0.99843851  0.16963489  0.07597607     0.78050
O1386       O  0.91448369  0.30191775  0.99597685    -0.60280
O1387       O  0.95311320  0.33767602  0.99820969    -0.53310
C1388       C  0.92452361  0.32985634  0.99635463     0.70070
O1389       O  0.91410075  0.19773107  0.00224175    -0.74840
O1390       O  0.95281845  0.16200167  0.00055086    -0.55400
C1391       C  0.92425712  0.16989630  0.00189796     0.76070
O1392       O  0.00291127  0.30226625  0.08414659    -0.59980
O1393       O  0.00039251  0.33803129  0.04610025    -0.53100
C1394       C  0.00214714  0.33037536  0.07450762     0.72660
Zr1395     Zr  0.00008821  0.24988694  0.06416781     2.54710
O1396       O  0.95867900  0.25176625  0.10188872    -0.80550
O1397       O  0.53968384  0.24903046  0.10385008    -0.93960
Zr1398     Zr  0.93554060  0.24976009  0.99956092     2.64680
O1399       O  0.89717213  0.25144250  0.04038452    -0.98920
O1400       O  0.89592434  0.24793802  0.45994775    -0.80980
O1401       O  0.96748566  0.21996331  0.03238220    -0.84340
O1402       O  0.96735787  0.27971472  0.03213182    -2.19050
O1403       O  0.58706396  0.30175496  0.00437500    -0.67730
O1404       O  0.54856231  0.33738591  0.99961381    -0.52290
C1405       C  0.57707030  0.32960625  0.50248956     0.71040
O1406       O  0.50339047  0.19772468  0.41479365    -0.60630
O1407       O  0.50106375  0.16164721  0.45259285    -0.52610
C1408       C  0.50222895  0.16969790  0.42414704     0.72850
O1409       O  0.50082654  0.30025439  0.41316682    -0.72030
O1410       O  0.00011761  0.33653938  0.45086403    -0.50710
C1411       C  0.50059719  0.32817188  0.42261649     0.74230
O1412       O  0.58713404  0.19791802  0.00181165    -0.67360
O1413       O  0.54842783  0.16203326  0.00151803    -0.54560
C1414       C  0.57699911  0.17005809  0.50211503     0.72610
Zr1415     Zr  0.56562285  0.24980977  0.00055847     2.77540
O1416       O  0.60336857  0.25094962  0.45914288    -0.98110
O1417       O  0.60554301  0.24849906  0.03984915    -0.78930
Zr1418     Zr  0.50093657  0.24925602  0.43583083     2.70070
O1419       O  0.53932091  0.25015955  0.39505236    -0.80180
O1420       O  0.95791476  0.24787100  0.39988219    -0.99260
Zr1421     Zr  0.50063052  0.19077128  0.00009375     2.21500
Zr1422     Zr  0.00064342  0.30859714  0.99919546     2.11130
O1423       O  0.53393379  0.27927943  0.46722244    -2.47950
O1424       O  0.53407814  0.21972680  0.46767350    -0.79970
O1425       O  0.53324385  0.27967327  0.03251381    -0.72160
O1426       O  0.96755144  0.21966847  0.46724070    -2.33120
O1427       O  0.53324847  0.22006593  0.03302542    -2.29330
O1428       O  0.96780011  0.27935493  0.46676945    -0.73920
H1429       H  0.95476535  0.29317931  0.04446810     0.78070
H1430       H  0.95503839  0.20628652  0.45470103     0.79160
H1431       H  0.54669718  0.29254715  0.45470130     0.81390
H1432       H  0.54569072  0.20686541  0.04589529     0.78990
H1433       H  0.90331917  0.23232319  0.44523561     0.42030
H1434       H  0.94366356  0.26412151  0.40705280     0.41000
H1435       H  0.55940575  0.24919066  0.40588600     0.40680
H1436       H  0.60051796  0.27121670  0.44908539     0.38610
H1437       H  0.59524656  0.25656577  0.05841411     0.41740
H1438       H  0.55258232  0.23087067  0.09910808     0.36530
H1439       H  0.94297977  0.23713304  0.09416383     0.42640
H1440       H  0.90202222  0.27032522  0.05203700     0.39060
H1441       H  0.62357927  0.25258905  0.46966266     0.43980
H1442       H  0.52846243  0.24325332  0.12281459     0.42700
H1443       H  0.87750346  0.25616217  0.02976128     0.42840
H1444       H  0.96655550  0.25606314  0.38046534     0.43190
O1445       O  0.80304456  0.08606717  0.00156387    -0.75680
O1446       O  0.83883651  0.04742568  0.00244484    -0.54580
C1447       C  0.83098036  0.07591166  0.00196935     0.78050
O1448       O  0.69695080  0.50150127  0.08638362    -0.60280
O1449       O  0.66134504  0.99953395  0.04771473    -0.53310
C1450       C  0.66902156  0.00066272  0.07616098     0.70070
O1451       O  0.80123219  0.49973230  0.08805904    -0.74840
O1452       O  0.83782501  0.50075081  0.05027845    -0.55400
C1453       C  0.82940755  0.00001662  0.07856187     0.76070
O1454       O  0.69894831  0.08665957  0.00049488    -0.59980
O1455       O  0.66257594  0.04843659  0.99992886    -0.53100
C1456       C  0.67087065  0.07686044  0.00007286     0.72660
Zr1457     Zr  0.75077446  0.06471558  0.00068290     2.54710
O1458       O  0.75061010  0.10386123  0.04037900    -0.80550
O1459       O  0.75085692  0.10258313  0.45935126    -0.93960
Zr1460     Zr  0.74949545  0.50066597  0.06583808     2.64680
O1461       O  0.75049960  0.04171163  0.10360064    -0.98920
O1462       O  0.74760340  0.46075708  0.10514410    -0.80980
O1463       O  0.78016035  0.03309923  0.03419266    -0.84340
O1464       O  0.72018764  0.03325099  0.03327304    -2.19050
O1465       O  0.69948846  0.00047452  0.41480035    -0.67730
O1466       O  0.66278127  0.99938186  0.45242706    -0.52290
C1467       C  0.67125510  0.50009778  0.42417088     0.71040
O1468       O  0.80229392  0.41406653  0.99986326    -0.60630
O1469       O  0.83843570  0.45229428  0.00225275    -0.52610
C1470       C  0.83042081  0.42385269  0.50079490     0.72850
O1471       O  0.69782386  0.41458536  0.00696536    -0.72030
O1472       O  0.66198443  0.45283903  0.00179865    -0.50710
C1473       C  0.66983559  0.42454594  0.50527809     0.74230
O1474       O  0.80334702  0.99930494  0.41641273    -0.67360
O1475       O  0.83903743  0.49941125  0.45490105    -0.54560
C1476       C  0.83132769  0.49923222  0.42640954     0.72610
Zr1477     Zr  0.75110065  0.99957253  0.43725169     2.77540
O1478       O  0.75177586  0.45857531  0.39942347    -0.98110
O1479       O  0.75240069  0.03972437  0.39818248    -0.78930
Zr1480     Zr  0.75011155  0.43552799  0.00245689     2.70070
O1481       O  0.74660376  0.39687738  0.46242995    -0.80180
O1482       O  0.75363637  0.39695948  0.04296405    -0.99260
Zr1483     Zr  0.80963358  0.49995378  0.00225904     2.21500
Zr1484     Zr  0.69101680  0.00034298  0.00059545     2.11130
O1485       O  0.72062093  0.46698527  0.46888754    -2.47950
O1486       O  0.78058660  0.46699639  0.46971018    -0.79970
O1487       O  0.72084447  0.03288261  0.46795933    -0.72160
O1488       O  0.77977726  0.46745568  0.03502361    -2.33120
O1489       O  0.78085554  0.03255694  0.46877903    -2.29330
O1490       O  0.71980709  0.46781358  0.03414399    -0.73920
H1491       H  0.70678174  0.04601688  0.04548546     0.78070
H1492       H  0.79293755  0.45479332  0.04772987     0.79160
H1493       H  0.70734810  0.45422337  0.45647055     0.81390
H1494       H  0.79438417  0.04500007  0.45619391     0.78990
H1495       H  0.75824042  0.44294112  0.09586125     0.42030
H1496       H  0.73705954  0.40248060  0.05757748     0.41000
H1497       H  0.76032961  0.40464487  0.44594633     0.40680
H1498       H  0.73330651  0.44592468  0.40410217     0.38610
H1499       H  0.74374552  0.05804705  0.40846057     0.41740
H1500       H  0.77019307  0.09868269  0.44787356     0.36530
H1501       H  0.76344740  0.09506066  0.05703467     0.42640
H1502       H  0.73458513  0.05649168  0.09658234     0.39060
H1503       H  0.74676865  0.46895771  0.37978814     0.43980
H1504       H  0.75445104  0.12247839  0.46971683     0.42700
H1505       H  0.74167093  0.03232430  0.12239380     0.42840
H1506       H  0.74633960  0.37770225  0.03331969     0.43190
C1507       C  0.90143846  0.35484537  0.99547030    -0.06510
C1508       C  0.90438370  0.37908870  0.01640168    -0.17640
C1509       C  0.88157131  0.40173006  0.01890461     0.10690
C1510       C  0.85524309  0.40054054  0.49967459    -0.06430
C1511       C  0.85275857  0.37673204  0.47817733    -0.17670
C1512       C  0.87573177  0.35427810  0.47550955     0.10720
S1513       S  0.88669304  0.43029414  0.04832008    -0.32630
S1514       S  0.87166688  0.32647759  0.44522331    -0.32640
H1515       H  0.90352737  0.32378031  0.43930284     0.28730
H1516       H  0.85522710  0.43206864  0.05590848     0.28720
H1517       H  0.92401313  0.37969951  0.03184367     0.19320
H1518       H  0.83311045  0.37606518  0.46277085     0.19320
C1519       C  0.90133771  0.14505624  0.00268788    -0.06510
C1520       C  0.89151675  0.13257075  0.47478293    -0.17640
C1521       C  0.86912287  0.10936502  0.47396797     0.10690
C1522       C  0.85589368  0.09879666  0.00164457    -0.06430
C1523       C  0.86579300  0.11117520  0.02959588    -0.17670
C1524       C  0.88865375  0.13397545  0.03045035     0.10720
S1525       S  0.85763191  0.09507447  0.43689313    -0.32630
S1526       S  0.90017743  0.14829924  0.06751275    -0.32640
H1527       H  0.93053134  0.15644244  0.05939676     0.28730
H1528       H  0.85137620  0.06482340  0.44643649     0.28960
H1529       H  0.90130707  0.14106338  0.45347354     0.19320
H1530       H  0.85564062  0.10301030  0.05086193     0.19320
C1531       C  0.60018829  0.35450495  0.50335253    -0.06510
C1532       C  0.62007116  0.35653342  0.02868478    -0.17640
C1533       C  0.64206575  0.38011588  0.03070174     0.10690
C1534       C  0.64486731  0.40160063  0.50646359    -0.06430
C1535       C  0.62453181  0.40000240  0.48153726    -0.17670
C1536       C  0.60248147  0.37660031  0.47960277     0.10720
S1537       S  0.66500898  0.38229690  0.06515695    -0.32630
S1538       S  0.57930687  0.37502543  0.44538471    -0.32640
H1539       H  0.57969804  0.34278746  0.44390554     0.28730
H1540       H  0.66899234  0.41441630  0.06452850     0.28720
H1541       H  0.61801361  0.34001441  0.04727437     0.19320
H1542       H  0.62671908  0.41634467  0.46279943     0.19320
C1543       C  0.60007303  0.14545405  0.50245817    -0.06510
C1544       C  0.61266057  0.13652878  0.47432636    -0.17640
C1545       C  0.63597900  0.11440946  0.47288733     0.10690
C1546       C  0.64642525  0.10021638  0.00015572    -0.06430
C1547       C  0.63367409  0.10896859  0.02834392    -0.17670
C1548       C  0.61071776  0.13159029  0.02987908     0.10720
S1549       S  0.65110180  0.10535119  0.43555141    -0.32630
S1550       S  0.59730435  0.14245908  0.06752230    -0.32640
H1551       H  0.56946204  0.15635896  0.05869205     0.28730
H1552       H  0.68118621  0.09787658  0.44501501     0.28720
H1553       H  0.60463426  0.14733313  0.45332929     0.19320
H1554       H  0.64194259  0.09836589  0.04932913     0.19320
C1555       C  0.90212418  0.00364327  0.35712315    -0.06510
C1556       C  0.90682237  0.48586718  0.38366579    -0.17640
C1557       C  0.88389265  0.48307813  0.40616925     0.10690
C1558       C  0.85617726  0.50000317  0.40314051    -0.06430
C1559       C  0.85219728  0.01908960  0.37740559    -0.17670
C1560       C  0.87485714  0.02136362  0.35465599     0.10720
S1561       S  0.89052518  0.45586207  0.43681820    -0.32630
S1562       S  0.86835687  0.04878040  0.32418264    -0.32640
H1563       H  0.89955186  0.05762446  0.32148398     0.28730
H1564       H  0.85985968  0.44506169  0.43774436     0.28720
H1565       H  0.92804838  0.47304290  0.38636166     0.19320
H1566       H  0.83147502  0.03293264  0.37528551     0.19320
C1567       C  0.64689628  0.50022466  0.40048856    -0.06510
C1568       C  0.62455318  0.47675441  0.40100292    -0.17640
C1569       C  0.60242680  0.47424896  0.37766826     0.10690
C1570       C  0.60173518  0.49644090  0.35389272    -0.06430
C1571       C  0.62405533  0.01984357  0.35337055    -0.17670
C1572       C  0.64655624  0.02202186  0.37626532     0.10720
S1573       S  0.57712612  0.44121677  0.37846196    -0.32630
S1574       S  0.67362476  0.05353418  0.37320280    -0.32640
H1575       H  0.68133082  0.05519992  0.40437504     0.28730
H1576       H  0.57466479  0.43821038  0.34645951     0.28720
H1577       H  0.62515748  0.45950218  0.41902303     0.19320
H1578       H  0.62363673  0.03693440  0.33518306     0.19320
C1579       C  0.59921660  0.49800670  0.14583096    -0.06510
C1580       C  0.61896192  0.02349086  0.14343816    -0.17640
C1581       C  0.64102137  0.02549809  0.12009041     0.10690
C1582       C  0.64400932  0.00115134  0.09900908    -0.06430
C1583       C  0.62396743  0.47583127  0.10107570    -0.17670
C1584       C  0.60181529  0.47384000  0.12444781     0.10720
S1585       S  0.66401653  0.06008019  0.11786322    -0.32630
S1586       S  0.57871892  0.43931242  0.12656403    -0.32640
H1587       H  0.57438660  0.43946373  0.15850760     0.28730
H1588       H  0.66745559  0.05993106  0.08582431     0.28720
H1589       H  0.61677193  0.04225643  0.15956789     0.19320
H1590       H  0.62636352  0.45697707  0.08507844     0.19320
C1591       C  0.85386606  0.99955833  0.10201691    -0.06510
C1592       C  0.87606273  0.02315145  0.10176632    -0.17640
C1593       C  0.89834155  0.02529371  0.12495781     0.10690
C1594       C  0.89908168  0.00279030  0.14842376    -0.06430
C1595       C  0.87704019  0.47915139  0.14854040    -0.17670
C1596       C  0.85461721  0.47712499  0.12558874     0.10720
S1597       S  0.92393894  0.05810402  0.12424350    -0.32630
S1598       S  0.82834527  0.44485759  0.12757830    -0.32640
H1599       H  0.82130357  0.44344095  0.09625056     0.28730
H1600       H  0.92712870  0.06053800  0.15623132     0.28720
H1601       H  0.87529193  0.04069494  0.08402392     0.19320
H1602       H  0.87770872  0.46170014  0.16637921     0.19320
C1603       C  0.50229183  0.14513526  0.40043952    -0.06510
C1604       C  0.51272762  0.11551971  0.40840246    -0.17640
C1605       C  0.51328869  0.09154853  0.38698843     0.10690
C1606       C  0.00343918  0.09705079  0.35642872    -0.06430
C1607       C  0.99268044  0.12654801  0.34870532    -0.17670
C1608       C  0.99197624  0.15036037  0.36998741     0.10720
S1609       S  0.52803095  0.05504103  0.39998179    -0.32630
S1610       S  0.97608812  0.18630622  0.35671937    -0.32640
H1611       H  0.00534018  0.20048983  0.35545444     0.28730
H1612       H  0.49897998  0.04061237  0.39758329     0.28720
H1613       H  0.52081213  0.11096227  0.43149682     0.19320
H1614       H  0.98433947  0.13124757  0.32572434     0.19320
C1615       C  0.49699999  0.39737871  0.35284368    -0.06510
C1616       C  0.52283313  0.37816255  0.35488007    -0.17640
C1617       C  0.52476740  0.35526689  0.37731750     0.10690
C1618       C  0.50062394  0.35226587  0.39903451    -0.06430
C1619       C  0.97451592  0.37122015  0.39668636    -0.17670
C1620       C  0.97196771  0.39295861  0.37309331     0.10720
S1621       S  0.55862883  0.33097093  0.37615105    -0.32630
S1622       S  0.93533199  0.41206885  0.36844626    -0.32640
H1623       H  0.93806304  0.41827899  0.33690391     0.28730
H1624       H  0.55557415  0.31652456  0.40469113     0.28720
H1625       H  0.54171098  0.38103515  0.33874976     0.19320
H1626       H  0.95533326  0.36795469  0.41238531     0.19320
C1627       C  0.49945751  0.39935540  0.14633521    -0.06510
C1628       C  0.50312569  0.40850968  0.11554174    -0.17640
C1629       C  0.50505138  0.38703586  0.09170104     0.10690
C1630       C  0.00248950  0.35508335  0.09828561    -0.06430
C1631       C  0.99880487  0.34606907  0.12905317    -0.17670
C1632       C  0.99692022  0.36736102  0.15277730     0.10720
S1633       S  0.51180554  0.40239502  0.05383478    -0.32630
S1634       S  0.98981089  0.35132557  0.19033043    -0.32640
H1635       H  0.96319355  0.36932518  0.19477008     0.28730
H1636       H  0.53729022  0.38308640  0.04833612     0.28720
H1637       H  0.50533053  0.43270467  0.10987199     0.19320
H1638       H  0.99646178  0.32194138  0.13495451     0.19320
C1639       C  0.99724956  0.14465984  0.09951199    -0.06510
C1640       C  0.98488480  0.15161367  0.12846110    -0.17640
C1641       C  0.98347282  0.12966090  0.15196866     0.10690
C1642       C  0.99623820  0.10004149  0.14742524    -0.06430
C1643       C  0.50810464  0.09284276  0.11834646    -0.17670
C1644       C  0.50820380  0.11435458  0.09435349     0.10720
S1645       S  0.96339111  0.14068031  0.18639098    -0.32630
S1646       S  0.52356553  0.10154986  0.05823725    -0.32640
H1647       H  0.49477814  0.10402087  0.04338109     0.28730
H1648       H  0.94760381  0.11248539  0.18937184     0.28720
H1649       H  0.97533532  0.17423393  0.13268113     0.19320
H1650       H  0.51763843  0.07020341  0.11419227     0.19320
O1651       O  0.91328294  0.00144474  0.70054689    -0.75680
O1652       O  0.95126258  0.00239222  0.66411603    -0.54580
C1653       C  0.92279354  0.00247065  0.67257811     0.78050
O1654       O  0.00409951  0.08333642  0.80386243    -0.60280
O1655       O  0.00282400  0.04486292  0.83936766    -0.53310
C1656       C  0.00377434  0.07342099  0.83178754     0.70070
O1657       O  0.99936405  0.08567437  0.70014487    -0.74840
O1658       O  0.49843192  0.04796646  0.66406172    -0.55400
C1659       C  0.99796320  0.07639743  0.67217479     0.76070
O1660       O  0.91485769  0.00178777  0.80420174    -0.59980
O1661       O  0.95378833  0.50020272  0.83946307    -0.53100
C1662       C  0.92509904  0.00191103  0.83197237     0.72660
Zr1663     Zr  0.93553954  0.00021629  0.75197591     2.54710
O1664       O  0.89771876  0.04160219  0.75150256    -0.80550
O1665       O  0.89597870  0.46037159  0.75345142    -0.93960
Zr1666     Zr  0.00186130  0.06338328  0.75162458     2.64680
O1667       O  0.96189610  0.10269996  0.75402494    -0.98920
O1668       O  0.54305494  0.10159405  0.75053468    -0.80980
O1669       O  0.96795971  0.03254364  0.72205968    -0.84340
O1670       O  0.96867088  0.03185408  0.78141547    -2.19050
O1671       O  0.49829654  0.41198431  0.80118892    -0.67730
O1672       O  0.99716889  0.44952378  0.83763150    -0.52290
C1673       C  0.49716057  0.42126603  0.82906595     0.71040
O1674       O  0.58636836  0.49813128  0.69826680    -0.60630
O1675       O  0.54734017  0.99790943  0.66283245    -0.52610
C1676       C  0.57609258  0.49780378  0.67055539     0.72850
O1677       O  0.58750721  0.49829496  0.80171401    -0.72030
O1678       O  0.54945873  0.49519138  0.83794705    -0.50710
C1679       C  0.57797368  0.49644176  0.82964733     0.74230
O1680       O  0.50115511  0.41414061  0.69877437    -0.67360
O1681       O  0.49794884  0.45190905  0.66284229    -0.54560
C1682       C  0.49942076  0.42335140  0.67083154     0.72610
Zr1683     Zr  0.49917376  0.43479258  0.75032185     2.77540
O1684       O  0.53782208  0.39410248  0.75027191    -0.98110
O1685       O  0.95632959  0.39848069  0.74920487    -0.78930
Zr1686     Zr  0.56531530  0.49810237  0.75021006     2.70070
O1687       O  0.60369395  0.45722523  0.75022646    -0.80180
O1688       O  0.60407995  0.03872456  0.74892385    -0.99260
Zr1689     Zr  0.49960161  0.99960008  0.69194388     2.21500
Zr1690     Zr  0.00109940  0.49789339  0.80993714     2.11130
O1691       O  0.53322351  0.46523261  0.77999502    -2.47950
O1692       O  0.53245461  0.46624431  0.72052375    -0.79970
O1693       O  0.96709926  0.46634610  0.78097140    -0.72160
O1694       O  0.53358659  0.03156973  0.72087888    -2.33120
O1695       O  0.96629022  0.46721644  0.72130398    -2.29330
O1696       O  0.53438437  0.03069182  0.78092062    -0.73920
H1697       H  0.95654601  0.04464363  0.79486150     0.78070
H1698       H  0.54620603  0.04413463  0.70749791     0.79160
H1699       H  0.54575590  0.45212010  0.79289042     0.81390
H1700       H  0.95327288  0.45491505  0.70818137     0.78990
H1701       H  0.55852725  0.09329615  0.73605522     0.42030
H1702       H  0.59852100  0.05239799  0.76614915     0.41000
H1703       H  0.59332203  0.43985510  0.73981503     0.40680
H1704       H  0.55119647  0.39845774  0.76815637     0.38610
H1705       H  0.94107137  0.40692526  0.76382795     0.41740
H1706       H  0.90003093  0.44758210  0.73517158     0.36530
H1707       H  0.90818180  0.05872563  0.74060601     0.42640
H1708       H  0.94916240  0.09715209  0.77208850     0.39060
H1709       H  0.52629000  0.37527082  0.75609893     0.43980
H1710       H  0.87651483  0.47132648  0.74861387     0.42700
H1711       H  0.97298220  0.12162017  0.76020332     0.42840
H1712       H  0.62342818  0.02855659  0.75559276     0.43190
O1713       O  0.99840479  0.19766881  0.58559296    -0.75680
O1714       O  0.49913555  0.16204716  0.54759700    -0.54580
C1715       C  0.99843181  0.16963445  0.57597627     0.78050
O1716       O  0.91447674  0.30191744  0.49597683    -0.60280
O1717       O  0.95310691  0.33767524  0.49820899    -0.53310
C1718       C  0.92451738  0.32985572  0.49635415     0.70070
O1719       O  0.91408954  0.19773042  0.50224364    -0.74840
O1720       O  0.95280642  0.16200040  0.50055303    -0.55400
C1721       C  0.92424498  0.16989514  0.50190099     0.76070
O1722       O  0.00290512  0.30226607  0.58414635    -0.59980
O1723       O  0.00038693  0.33803125  0.54610011    -0.53100
C1724       C  0.00214197  0.33037523  0.57450745     0.72660
Zr1725     Zr  0.00008007  0.24988670  0.56416793     2.54710
O1726       O  0.95867214  0.25176704  0.60189016    -0.80550
O1727       O  0.53967675  0.24903009  0.60384921    -0.93960
Zr1728     Zr  0.93553162  0.24975946  0.49956108     2.64680
O1729       O  0.89716296  0.25144307  0.54038443    -0.98920
O1730       O  0.89593334  0.24793785  0.95994762    -0.80980
O1731       O  0.96747570  0.21996329  0.53238352    -0.84340
O1732       O  0.96735012  0.27971432  0.53213136    -2.19050
O1733       O  0.58705697  0.30175447  0.50437528    -0.67730
O1734       O  0.54855596  0.33738587  0.49961369    -0.52290
C1735       C  0.57707663  0.32960647  0.00248947     0.71040
O1736       O  0.50339492  0.19772531  0.91479223    -0.60630
O1737       O  0.50107311  0.16164773  0.95259161    -0.52610
C1738       C  0.50223458  0.16969847  0.92414556     0.72850
O1739       O  0.50083225  0.30025476  0.91316700    -0.72030
O1740       O  0.00012265  0.33653975  0.95086421    -0.50710
C1741       C  0.50060176  0.32817224  0.92261667     0.74230
O1742       O  0.58712276  0.19791789  0.50180529    -0.67360
O1743       O  0.54841558  0.16203393  0.50151338    -0.54560
C1744       C  0.57701142  0.17005770  0.00212251     0.72610
Zr1745     Zr  0.56561394  0.24980973  0.50055836     2.77540
O1746       O  0.60337672  0.25094847  0.95914229    -0.98110
O1747       O  0.60553310  0.24849552  0.53984996    -0.78930
Zr1748     Zr  0.50094522  0.24925634  0.93583076     2.70070
O1749       O  0.53932848  0.25016081  0.89505133    -0.80180
O1750       O  0.95792141  0.24787082  0.89988432    -0.99260
Zr1751     Zr  0.50061899  0.19077119  0.50009414     2.21500
Zr1752     Zr  0.00063652  0.30859682  0.49919542     2.11130
O1753       O  0.53394175  0.27927974  0.96722300    -2.47950
O1754       O  0.53408854  0.21972690  0.96767223    -0.79970
O1755       O  0.53323610  0.27967312  0.53251433    -0.72160
O1756       O  0.96756152  0.21966882  0.96724154    -2.33120
O1757       O  0.53323902  0.22006535  0.53302473    -2.29330
O1758       O  0.96780808  0.27935540  0.96676879    -0.73920
H1759       H  0.95475791  0.29317916  0.54446768     0.78070
H1760       H  0.95504850  0.20628688  0.95470184     0.79160
H1761       H  0.54670482  0.29254768  0.95470179     0.81390
H1762       H  0.54568142  0.20686447  0.54589409     0.78990
H1763       H  0.90332630  0.23231996  0.94523777     0.42030
H1764       H  0.94366991  0.26412053  0.90705617     0.41000
H1765       H  0.55941366  0.24919399  0.90588452     0.40680
H1766       H  0.60052514  0.27121487  0.94908371     0.38610
H1767       H  0.59523855  0.25656835  0.55841327     0.41740
H1768       H  0.55257617  0.23087133  0.59910582     0.36530
H1769       H  0.94297378  0.23713171  0.59416751     0.42640
H1770       H  0.90201520  0.27032427  0.55203848     0.39060
H1771       H  0.62358752  0.25258931  0.96966165     0.43980
H1772       H  0.52845617  0.24325123  0.62281368     0.42700
H1773       H  0.87749494  0.25616590  0.52976139     0.42840
H1774       H  0.96656075  0.25606388  0.88046726     0.43190
O1775       O  0.80302660  0.08606702  0.50157309    -0.75680
O1776       O  0.83881845  0.04742557  0.50247560    -0.54580
C1777       C  0.83096253  0.07591165  0.50198972     0.78050
O1778       O  0.69694965  0.50150063  0.58638380    -0.60280
O1779       O  0.66129862  0.99953805  0.54768070    -0.53310
C1780       C  0.66896523  0.00066791  0.57612926     0.70070
O1781       O  0.80123107  0.49973152  0.58805901    -0.74840
O1782       O  0.83782356  0.50074982  0.55027816    -0.55400
C1783       C  0.82934620  0.00001577  0.57860247     0.76070
O1784       O  0.69893036  0.08665918  0.50048614    -0.59980
O1785       O  0.66255808  0.04843646  0.49990114    -0.53100
C1786       C  0.67085302  0.07686005  0.50005309     0.72660
Zr1787     Zr  0.75075592  0.06471494  0.50068691     2.54710
O1788       O  0.75058739  0.10385991  0.54038358    -0.80550
O1789       O  0.75087335  0.10258462  0.95934801    -0.93960
Zr1790     Zr  0.74949400  0.50066520  0.56583815     2.64680
O1791       O  0.75042746  0.04170389  0.60360908    -0.98920
O1792       O  0.74760243  0.46075612  0.60514401    -0.80980
O1793       O  0.78012640  0.03309542  0.53420664    -0.84340
O1794       O  0.72015499  0.03325170  0.53326597    -2.19050
O1795       O  0.69948029  0.00047511  0.91481164    -0.67730
O1796       O  0.66278212  0.99938493  0.95244750    -0.52290
C1797       C  0.67125637  0.50009822  0.92417100     0.71040
O1798       O  0.80229076  0.41406625  0.49986331    -0.60630
O1799       O  0.83843293  0.45229368  0.50225251    -0.52610
C1800       C  0.83042401  0.42385306  0.00079507     0.72850
O1801       O  0.69782092  0.41458404  0.50696497    -0.72030
O1802       O  0.66198182  0.45283800  0.50179841    -0.50710
C1803       C  0.66983855  0.42454719  0.00527854     0.74230
O1804       O  0.80343657  0.99929561  0.91635825    -0.67360
O1805       O  0.83903891  0.49941233  0.95490078    -0.54560
C1806       C  0.83132888  0.49923312  0.92640936     0.72610
Zr1807     Zr  0.75111419  0.99957105  0.93724072     2.77540
O1808       O  0.75177699  0.45857646  0.89942317    -0.98110
O1809       O  0.75238772  0.03972453  0.89817869    -0.78930
Zr1810     Zr  0.75010866  0.43552724  0.50245705     2.70070
O1811       O  0.74660599  0.39687825  0.96242972    -0.80180
O1812       O  0.75363382  0.39695884  0.54296428    -0.99260
Zr1813     Zr  0.80963129  0.49995279  0.50225905     2.21500
Zr1814     Zr  0.69099783  0.00034283  0.50057931     2.11130
O1815       O  0.72062314  0.46698578  0.96888756    -2.47950
O1816       O  0.78058883  0.46699755  0.96970997    -0.79970
O1817       O  0.72085328  0.03288189  0.96796492    -0.72160
O1818       O  0.77977512  0.46745461  0.53502360    -2.33120
O1819       O  0.78086435  0.03255734  0.96876419    -2.29330
O1820       O  0.71980484  0.46781313  0.53414425    -0.73920
H1821       H  0.70674469  0.04601779  0.54547336     0.78070
H1822       H  0.79293543  0.45479222  0.54772980     0.79160
H1823       H  0.70735030  0.45422383  0.95647063     0.81390
H1824       H  0.79439073  0.04499694  0.95617336     0.78990
H1825       H  0.75823949  0.44294025  0.59586103     0.42030
H1826       H  0.73705668  0.40247960  0.55757750     0.41000
H1827       H  0.76033103  0.40464615  0.94594563     0.40680
H1828       H  0.73330777  0.44592571  0.90410205     0.38610
H1829       H  0.74374792  0.05805016  0.90846425     0.41740
H1830       H  0.77021051  0.09868677  0.94787107     0.36530
H1831       H  0.76342851  0.09506192  0.55703770     0.42640
H1832       H  0.73453569  0.05649786  0.59656888     0.39060
H1833       H  0.74676944  0.46895896  0.87978797     0.43980
H1834       H  0.75446461  0.12248006  0.96971418     0.42700
H1835       H  0.74156312  0.03232222  0.62238850     0.42840
H1836       H  0.74633763  0.37770144  0.53331984     0.43190
C1837       C  0.90143317  0.35484483  0.49546969    -0.06510
C1838       C  0.90437905  0.37908771  0.51640137    -0.17640
C1839       C  0.88156732  0.40172938  0.51890435     0.10690
C1840       C  0.85524688  0.40054079  0.99967504    -0.06430
C1841       C  0.85276284  0.37673175  0.97817824    -0.17670
C1842       C  0.87573661  0.35427809  0.97551055     0.10720
S1843       S  0.88668964  0.43029321  0.54831996    -0.32630
S1844       S  0.87167187  0.32647724  0.94522462    -0.32640
H1845       H  0.90353232  0.32378087  0.93930354     0.28730
H1846       H  0.85522374  0.43206841  0.55590823     0.28720
H1847       H  0.92400840  0.37969788  0.53184351     0.19320
H1848       H  0.83311463  0.37606426  0.96277190     0.19320
C1849       C  0.90132440  0.14505489  0.50269522    -0.06510
C1850       C  0.89153470  0.13257408  0.97477323    -0.17640
C1851       C  0.86914207  0.10936779  0.97395340     0.10690
C1852       C  0.85587683  0.09879665  0.50166139    -0.06430
C1853       C  0.86578098  0.11117672  0.52961038    -0.17670
C1854       C  0.88864350  0.13397594  0.53046007     0.10720
S1855       S  0.85765444  0.09508251  0.93687543    -0.32630
S1856       S  0.90017393  0.14830068  0.56751994    -0.32640
H1857       H  0.93052803  0.15643833  0.55939921     0.28730
H1858       H  0.85138973  0.06483198  0.94641412     0.28960
H1859       H  0.90132733  0.14106913  0.95346579     0.19320
H1860       H  0.85563121  0.10301374  0.55087837     0.19320
C1861       C  0.60019376  0.35450532  0.00335253    -0.06510
C1862       C  0.62006631  0.35653258  0.52868444    -0.17640
C1863       C  0.64206189  0.38011439  0.53070107     0.10690
C1864       C  0.64487072  0.40160198  0.00646417    -0.06430
C1865       C  0.62453559  0.40000343  0.98153763    -0.17670
C1866       C  0.60248611  0.37660079  0.97960288     0.10720
S1867       S  0.66500588  0.38229438  0.56515587    -0.32630
S1868       S  0.57931154  0.37502536  0.94538480    -0.32640
H1869       H  0.57970434  0.34278742  0.94390520     0.28730
H1870       H  0.66898998  0.41441370  0.56452782     0.28720
H1871       H  0.61800856  0.34001364  0.54727407     0.19320
H1872       H  0.62672259  0.41634581  0.96279985     0.19320
C1873       C  0.60008676  0.14545369  0.00246978    -0.06510
C1874       C  0.61267958  0.13652903  0.97434013    -0.17640
C1875       C  0.63599913  0.11441046  0.97290440     0.10690
C1876       C  0.64640823  0.10021564  0.50013741    -0.06430
C1877       C  0.63366241  0.10896896  0.52832744    -0.17670
C1878       C  0.61070760  0.13159117  0.52986599     0.10720
S1879       S  0.65112508  0.10535160  0.93556981    -0.32630
S1880       S  0.59730105  0.14246140  0.56751125    -0.32640
H1881       H  0.56945674  0.15636021  0.55868553     0.28730
H1882       H  0.68120866  0.09787567  0.94503440     0.28720
H1883       H  0.60465603  0.14733300  0.95334184     0.19320
H1884       H  0.64193407  0.09836685  0.54931152     0.19320
C1885       C  0.90216452  0.00364604  0.85709736    -0.06510
C1886       C  0.90682283  0.48586753  0.88366536    -0.17640
C1887       C  0.88389331  0.48307865  0.90616892     0.10690
C1888       C  0.85617812  0.50000393  0.90314029    -0.06430
C1889       C  0.85231158  0.01907227  0.87742120    -0.17670
C1890       C  0.87490457  0.02134625  0.85463045     0.10720
S1891       S  0.89052577  0.45586255  0.93681786    -0.32630
S1892       S  0.86835951  0.04879181  0.82417199    -0.32640
H1893       H  0.89955532  0.05763379  0.82147683     0.28730
H1894       H  0.85986021  0.44506234  0.93774411     0.28720
H1895       H  0.92804875  0.47304305  0.88636105     0.19320
H1896       H  0.83154565  0.03286200  0.87527678     0.19320
C1897       C  0.64689723  0.50022503  0.90048874    -0.06510
C1898       C  0.62455395  0.47675491  0.90100338    -0.17640
C1899       C  0.60242728  0.47424943  0.87766890     0.10690
C1900       C  0.60173544  0.49644127  0.85389326    -0.06430
C1901       C  0.62405756  0.01983995  0.85337433    -0.17670
C1902       C  0.64655203  0.02202216  0.87627633     0.10720
S1903       S  0.57712659  0.44121725  0.87846287    -0.32630
S1904       S  0.67362341  0.05353198  0.87321307    -0.32640
H1905       H  0.68132807  0.05519963  0.90438545     0.28730
H1906       H  0.57466505  0.43821075  0.84646045     0.28720
H1907       H  0.62515834  0.45950275  0.91902355     0.19320
H1908       H  0.62364538  0.03692707  0.83518329     0.19320
C1909       C  0.59921634  0.49800621  0.64583161    -0.06510
C1910       C  0.61891028  0.02349509  0.64340771    -0.17640
C1911       C  0.64096082  0.02550680  0.62005253     0.10690
C1912       C  0.64394745  0.00116010  0.59897095    -0.06430
C1913       C  0.62396658  0.47583080  0.60107614    -0.17670
C1914       C  0.60181469  0.47383955  0.62444839     0.10720
S1915       S  0.66394965  0.06009268  0.61781960    -0.32630
S1916       S  0.57871819  0.43931206  0.62656470    -0.32640
H1917       H  0.57438617  0.43946330  0.65850830     0.28730
H1918       H  0.66739738  0.05993454  0.58578195     0.28720
H1919       H  0.61672192  0.04226026  0.65953814     0.19320
H1920       H  0.62636248  0.45697664  0.58507880     0.19320
C1921       C  0.85379812  0.99956199  0.60206379    -0.06510
C1922       C  0.87598996  0.02315932  0.60181622    -0.17640
C1923       C  0.89827621  0.02529591  0.62500057     0.10690
C1924       C  0.89903154  0.00278070  0.64845411    -0.06430
C1925       C  0.87704000  0.47915069  0.64854007    -0.17670
C1926       C  0.85461681  0.47712420  0.62558854     0.10720
S1927       S  0.92386401  0.05811371  0.62429396    -0.32630
S1928       S  0.82834508  0.44485666  0.62757840    -0.32640
H1929       H  0.82130195  0.44344058  0.59625096     0.28730
H1930       H  0.92706746  0.06053132  0.65628177     0.28720
H1931       H  0.87521173  0.04070862  0.58407984     0.19320
H1932       H  0.87770870  0.46169945  0.66637888     0.19320
C1933       C  0.50229443  0.14513585  0.90043764    -0.06510
C1934       C  0.51272892  0.11551967  0.90839975    -0.17640
C1935       C  0.51328794  0.09154863  0.88698548     0.10690
C1936       C  0.00343793  0.09705154  0.85642593    -0.06430
C1937       C  0.99268018  0.12654940  0.84870339    -0.17670
C1938       C  0.99197782  0.15036163  0.86998590     0.10720
S1939       S  0.52802809  0.05504025  0.89997887    -0.32630
S1940       S  0.97609045  0.18630817  0.85671885    -0.32640
H1941       H  0.00534291  0.20049088  0.85545320     0.28730
H1942       H  0.49897637  0.04061312  0.89757988     0.28720
H1943       H  0.52081407  0.11096153  0.93149374     0.19320
H1944       H  0.98433862  0.13124967  0.82572277     0.19320
C1945       C  0.49700064  0.39737895  0.85284401    -0.06510
C1946       C  0.52283423  0.37816332  0.85487965    -0.17640
C1947       C  0.52476968  0.35526777  0.87731702     0.10690
C1948       C  0.50062694  0.35226618  0.89903467    -0.06430
C1949       C  0.97451847  0.37121988  0.89668731    -0.17670
C1950       C  0.97196912  0.39295837  0.87309438     0.10720
S1951       S  0.55863168  0.33097264  0.87614971    -0.32630
S1952       S  0.93533295  0.41206807  0.86844851    -0.32640
H1953       H  0.93806322  0.41827906  0.83690626     0.28730
H1954       H  0.55557881  0.31652716  0.90469045     0.28720
H1955       H  0.54171158  0.38103634  0.83874883     0.19320
H1956       H  0.95533635  0.36795397  0.91238682     0.19320
C1957       C  0.49945718  0.39935514  0.64633544    -0.06510
C1958       C  0.50312490  0.40850940  0.61554188    -0.17640
C1959       C  0.50504931  0.38703558  0.59170105     0.10690
C1960       C  0.00248626  0.35508315  0.59828554    -0.06430
C1961       C  0.99880267  0.34606888  0.62905322    -0.17670
C1962       C  0.99691959  0.36736079  0.65277752     0.10720
S1963       S  0.51180354  0.40239456  0.55383474    -0.32630
S1964       S  0.98981189  0.35132529  0.69033092    -0.32640
H1965       H  0.96319416  0.36932417  0.69477122     0.28730
H1966       H  0.53728710  0.38308463  0.54833553     0.28720
H1967       H  0.50533026  0.43270434  0.60987215     0.19320
H1968       H  0.99645919  0.32194124  0.63495459     0.19320
C1969       C  0.99724242  0.14465930  0.59951205    -0.06510
C1970       C  0.98487693  0.15161316  0.62846082    -0.17640
C1971       C  0.98346101  0.12965941  0.65196719     0.10690
C1972       C  0.99622188  0.10003832  0.64742263    -0.06430
C1973       C  0.50809011  0.09283978  0.61834455    -0.17670
C1974       C  0.50819473  0.11435337  0.59435304     0.10720
S1975       S  0.96338068  0.14068020  0.68638987    -0.32630
S1976       S  0.52356203  0.10155063  0.55823842    -0.32640
H1977       H  0.49477612  0.10401910  0.54337905     0.28730
H1978       H  0.94759131  0.11248650  0.68937128     0.28720
H1979       H  0.97532972  0.17423425  0.63268144     0.19320
H1980       H  0.51762205  0.07019966  0.61419025     0.19320
O1981       O  0.91332522  0.50145845  0.20051474    -0.75680
O1982       O  0.95131696  0.50239997  0.16409588    -0.54580
C1983       C  0.92284564  0.50248217  0.17254830     0.78050
O1984       O  0.00411182  0.58333648  0.30386520    -0.60280
O1985       O  0.00282280  0.54486238  0.33936942    -0.53310
C1986       C  0.00377875  0.57342042  0.33178993     0.70070
O1987       O  0.99938380  0.58567828  0.20014754    -0.74840
O1988       O  0.49846899  0.54797058  0.16406397    -0.55400
C1989       C  0.99798978  0.57640128  0.17217722     0.76070
O1990       O  0.91486076  0.50179098  0.30418647    -0.59980
O1991       O  0.95379168  0.00019791  0.33947470    -0.53100
C1992       C  0.92509111  0.50190748  0.33196561     0.72660
Zr1993     Zr  0.93555646  0.50022184  0.25195840     2.54710
O1994       O  0.89773118  0.54160352  0.25147955    -0.80550
O1995       O  0.89597024  0.96037115  0.25346118    -0.93960
Zr1996     Zr  0.00188109  0.56338578  0.25162640     2.64680
O1997       O  0.96191444  0.60270121  0.25402523    -0.98920
O1998       O  0.54307276  0.60159892  0.25054155    -0.80980
O1999       O  0.96798891  0.53254622  0.22205190    -0.84340
O2000       O  0.96868165  0.53185698  0.28140799    -2.19050
O2001       O  0.49829396  0.91198339  0.30118863    -0.67730
O2002       O  0.99717077  0.94952248  0.33763178    -0.52290
C2003       C  0.49716082  0.92126488  0.32906582     0.71040
O2004       O  0.58635921  0.99813315  0.19825932    -0.60630
O2005       O  0.54738873  0.49791316  0.16284619    -0.52610
C2006       C  0.57608174  0.99780560  0.17054867     0.72850
O2007       O  0.58750535  0.99829613  0.30170107    -0.72030
O2008       O  0.54946173  0.99519225  0.33793928    -0.50710
C2009       C  0.57797529  0.99644283  0.32963496     0.74230
O2010       O  0.50114914  0.91414135  0.19877441    -0.67360
O2011       O  0.49793896  0.95190964  0.16284258    -0.54560
C2012       C  0.49941362  0.92335210  0.17083166     0.72610
Zr2013     Zr  0.49916744  0.93479263  0.25032210     2.77540
O2014       O  0.53781701  0.89410364  0.25027157    -0.98110
O2015       O  0.95632441  0.89847941  0.24920401    -0.78930
Zr2016     Zr  0.56530758  0.99810291  0.25020265     2.70070
O2017       O  0.60368566  0.95722523  0.25021669    -0.80180
O2018       O  0.60409947  0.53872401  0.24895043    -0.99260
Zr2019     Zr  0.49964028  0.49960337  0.19194404     2.21500
Zr2020     Zr  0.00109740  0.99789278  0.30993837     2.11130
O2021       O  0.53321918  0.96523333  0.27999191    -2.47950
O2022       O  0.53244570  0.96624359  0.22052023    -0.79970
O2023       O  0.96709519  0.96634457  0.28097615    -0.72160
O2024       O  0.53361583  0.53157393  0.22088737    -2.33120
O2025       O  0.96628109  0.96721751  0.22130879    -2.29330
O2026       O  0.53439562  0.53069204  0.28092897    -0.73920
H2027       H  0.95655389  0.54464609  0.29485189     0.78070
H2028       H  0.54623881  0.54413907  0.20750990     0.79160
H2029       H  0.54575313  0.95212078  0.29288575     0.81390
H2030       H  0.95326288  0.95491609  0.20818705     0.78990
H2031       H  0.55854599  0.59330352  0.23606163     0.42030
H2032       H  0.59853431  0.55239886  0.26617263     0.41000
H2033       H  0.59331254  0.93985491  0.23980676     0.40680
H2034       H  0.55119200  0.89845951  0.26815544     0.38610
H2035       H  0.94106683  0.90692200  0.26382889     0.41740
H2036       H  0.90002371  0.94758053  0.23518240     0.36530
H2037       H  0.90819974  0.55873323  0.24059810     0.42640
H2038       H  0.94917999  0.59715323  0.27208824     0.39060
H2039       H  0.52628576  0.87527168  0.25609923     0.43980
H2040       H  0.87650685  0.97132597  0.24862152     0.42700
H2041       H  0.97299967  0.62162181  0.26020392     0.42840
H2042       H  0.62344507  0.52855620  0.25562715     0.43190
O2043       O  0.99841024  0.69766973  0.08559340    -0.75680
O2044       O  0.49914266  0.66204844  0.04759717    -0.54580
C2045       C  0.99843764  0.66963548  0.07597643     0.78050
O2046       O  0.91448388  0.80191899  0.99597699    -0.60280
O2047       O  0.95311365  0.83767694  0.99821009    -0.53310
C2048       C  0.92452398  0.82985753  0.99635495     0.70070
O2049       O  0.91410036  0.69773226  0.00224111    -0.74840
O2050       O  0.95281800  0.66200273  0.00055091    -0.55400
C2051       C  0.92425670  0.66989750  0.00189742     0.76070
O2052       O  0.00291118  0.80226693  0.08414685    -0.59980
O2053       O  0.00039301  0.83803193  0.04610045    -0.53100
C2054       C  0.00214730  0.83037605  0.07450786     0.72660
Zr2055     Zr  0.00008782  0.74988752  0.06416838     2.54710
O2056       O  0.95867854  0.75176733  0.10188920    -0.80550
O2057       O  0.53968328  0.74903096  0.10385083    -0.93960
Zr2058     Zr  0.93554043  0.74976111  0.99956111     2.64680
O2059       O  0.89717194  0.75144341  0.04038467    -0.98920
O2060       O  0.89592615  0.74794254  0.45994575    -0.80980
O2061       O  0.96748515  0.71996416  0.03238265    -0.84340
O2062       O  0.96735774  0.77971543  0.03213222    -2.19050
O2063       O  0.58706406  0.80175446  0.00437464    -0.67730
O2064       O  0.54856254  0.83738560  0.99961372    -0.52290
C2065       C  0.57706374  0.82960489  0.50248664     0.71040
O2066       O  0.50338772  0.69772433  0.41479363    -0.60630
O2067       O  0.50106709  0.66164676  0.45259299    -0.52610
C2068       C  0.50222884  0.66969746  0.42414704     0.72850
O2069       O  0.50082643  0.80025320  0.41316653    -0.72030
O2070       O  0.00011281  0.83653824  0.45086358    -0.50710
C2071       C  0.50059547  0.82817066  0.42261606     0.74230
O2072       O  0.58713371  0.69791758  0.00181303    -0.67360
O2073       O  0.54842720  0.66203321  0.00151967    -0.54560
C2074       C  0.57700460  0.67005661  0.50212357     0.72610
Zr2075     Zr  0.56562274  0.74980948  0.00055908     2.77540
O2076       O  0.60336680  0.75094735  0.45914148    -0.98110
O2077       O  0.60554303  0.74849930  0.03984965    -0.78930
Zr2078     Zr  0.50093535  0.74925559  0.43583126     2.70070
O2079       O  0.53931921  0.75015965  0.39505236    -0.80180
O2080       O  0.95791419  0.74786908  0.39988213    -0.99260
Zr2081     Zr  0.50063012  0.69077196  0.00009446     2.21500
Zr2082     Zr  0.00064358  0.80859736  0.99919586     2.11130
O2083       O  0.53393076  0.77927898  0.46722407    -2.47950
O2084       O  0.53407973  0.71972609  0.46767158    -0.79970
O2085       O  0.53324384  0.77967337  0.03251429    -0.72160
O2086       O  0.96755253  0.71966873  0.46724288    -2.33120
O2087       O  0.53324811  0.72006625  0.03302624    -2.29330
O2088       O  0.96779695  0.77935567  0.46676783    -0.73920
H2089       H  0.95476529  0.79318016  0.04446839     0.78070
H2090       H  0.95503966  0.70628665  0.45470318     0.79160
H2091       H  0.54669373  0.79254688  0.45470272     0.81390
H2092       H  0.54569020  0.70686566  0.04589619     0.78990
H2093       H  0.90331795  0.73232295  0.44523712     0.42030
H2094       H  0.94366255  0.76411939  0.40705230     0.41000
H2095       H  0.55940418  0.74919073  0.40588574     0.40680
H2096       H  0.60051536  0.77121390  0.44908317     0.38610
H2097       H  0.59524654  0.75656596  0.05841461     0.41740
H2098       H  0.55258185  0.73087125  0.09910878     0.36530
H2099       H  0.94297934  0.73713400  0.09416448     0.42640
H2100       H  0.90202213  0.77032603  0.05203730     0.39060
H2101       H  0.62357776  0.75258779  0.46966062     0.43980
H2102       H  0.52846180  0.74325368  0.12281525     0.42700
H2103       H  0.87750331  0.75616328  0.02976145     0.42840
H2104       H  0.96655502  0.75606113  0.38046529     0.43190
O2105       O  0.80304552  0.58606754  0.00156308    -0.75680
O2106       O  0.83883830  0.54742651  0.00244061    -0.54580
C2107       C  0.83098141  0.57591229  0.00196690     0.78050
O2108       O  0.69694435  0.00150073  0.08638145    -0.60280
O2109       O  0.66134936  0.49953399  0.04771900    -0.53310
C2110       C  0.66902751  0.50066297  0.07616462     0.70070
O2111       O  0.80122567  0.99973144  0.08806175    -0.74840
O2112       O  0.83782048  0.00075074  0.05028334    -0.55400
C2113       C  0.82941351  0.50001699  0.07855750     0.76070
O2114       O  0.69894917  0.58665972  0.00049562    -0.59980
O2115       O  0.66257735  0.54843628  0.99993330    -0.53100
C2116       C  0.67087152  0.57686033  0.00007538     0.72660
Zr2117     Zr  0.75077582  0.56471593  0.00068279     2.54710
O2118       O  0.75061175  0.60386143  0.04037893    -0.80550
O2119       O  0.75087110  0.60258427  0.45934789    -0.93960
Zr2120     Zr  0.74948990  0.00066542  0.06583814     2.64680
O2121       O  0.75050597  0.54171177  0.10360103    -0.98920
O2122       O  0.74759641  0.96075653  0.10514409    -0.80980
O2123       O  0.78016399  0.53309901  0.03418990    -0.84340
O2124       O  0.72019121  0.53325191  0.03327531    -2.19050
O2125       O  0.69947602  0.50047351  0.41481690    -0.67730
O2126       O  0.66278091  0.49938470  0.45245526    -0.52290
C2127       C  0.67126460  0.00009575  0.42414603     0.71040
O2128       O  0.80229303  0.91406674  0.99986358    -0.60630
O2129       O  0.83843397  0.95229464  0.00225747    -0.52610
C2130       C  0.83040509  0.92385262  0.50082373     0.72850
O2131       O  0.69782292  0.91458521  0.00696439    -0.72030
O2132       O  0.66198308  0.95283822  0.00179479    -0.50710
C2133       C  0.66981840  0.92454801  0.50526462     0.74230
O2134       O  0.80333372  0.49930042  0.41638733    -0.67360
O2135       O  0.83903921  0.99941200  0.45493713    -0.54560
C2136       C  0.83133823  0.99923629  0.42644250     0.72610
Zr2137     Zr  0.75109585  0.49957113  0.43724828     2.77540
O2138       O  0.75179855  0.95857709  0.39942688    -0.98110
O2139       O  0.75238164  0.53972290  0.39817861    -0.78930
Zr2140     Zr  0.75011009  0.93552786  0.00245648     2.70070
O2141       O  0.74658880  0.89688385  0.46242454    -0.80180
O2142       O  0.75363509  0.89695940  0.04296373    -0.99260
Zr2143     Zr  0.80963025  0.99995280  0.00226267     2.21500
Zr2144     Zr  0.69101944  0.50034319  0.00059982     2.11130
O2145       O  0.72061409  0.96698538  0.46887808    -2.47950
O2146       O  0.78058053  0.96699834  0.46972444    -0.79970
O2147       O  0.72085075  0.53288124  0.46796717    -0.72160
O2148       O  0.77977348  0.96745468  0.03502604    -2.33120
O2149       O  0.78086192  0.53255765  0.46876285    -2.29330
O2150       O  0.71980354  0.96781378  0.03414129    -0.73920
H2151       H  0.70678584  0.54601783  0.04548829     0.78070
H2152       H  0.79293333  0.95479239  0.04773278     0.79160
H2153       H  0.70734618  0.95422326  0.45645622     0.81390
H2154       H  0.79438594  0.54500085  0.45617279     0.78990
H2155       H  0.75823699  0.94294175  0.09586300     0.42030
H2156       H  0.73705883  0.90248104  0.05757760     0.41000
H2157       H  0.76032848  0.90464580  0.44594972     0.40680
H2158       H  0.73332623  0.94592728  0.40409608     0.38610
H2159       H  0.74374708  0.55805034  0.40846525     0.41740
H2160       H  0.77020854  0.59868726  0.44787115     0.36530
H2161       H  0.76344803  0.59506019  0.05703503     0.42640
H2162       H  0.73459067  0.55649143  0.09658378     0.39060
H2163       H  0.74680193  0.96895996  0.37978913     0.43980
H2164       H  0.75446145  0.62247981  0.46971419     0.42700
H2165       H  0.74167858  0.53232395  0.12239455     0.42840
H2166       H  0.74633755  0.87770230  0.03331967     0.43190
C2167       C  0.90143887  0.85484673  0.99547085    -0.06510
C2168       C  0.90438364  0.87908946  0.01640299    -0.17640
C2169       C  0.88157086  0.90173045  0.01890655     0.10690
C2170       C  0.85522841  0.90053973  0.49970389    -0.06430
C2171       C  0.85274904  0.87673673  0.47819983    -0.17670
C2172       C  0.87572450  0.85428505  0.47552832     0.10720
S2173       S  0.88669213  0.93029358  0.04832300    -0.32630
S2174       S  0.87166435  0.82649276  0.44523404    -0.32640
H2175       H  0.90352551  0.82379917  0.43931554     0.28730
H2176       H  0.85522620  0.93206694  0.05591176     0.28720
H2177       H  0.92401293  0.87969997  0.03184517     0.19320
H2178       H  0.83310327  0.87607286  0.46279025     0.19320
C2179       C  0.90133735  0.64505755  0.00268677    -0.06510
C2180       C  0.89152948  0.63257529  0.47477200    -0.17640
C2181       C  0.86913854  0.60936775  0.47395168     0.10690
C2182       C  0.85589418  0.59879753  0.00164252    -0.06430
C2183       C  0.86579275  0.61117606  0.02959405    -0.17670
C2184       C  0.88865314  0.63397654  0.03044900     0.10720
S2185       S  0.85765171  0.59508235  0.43687347    -0.32630
S2186       S  0.90017609  0.64830026  0.06751164    -0.32640
H2187       H  0.93053024  0.65644317  0.05939627     0.28730
H2188       H  0.85138912  0.56483094  0.44641122     0.28960
H2189       H  0.90132167  0.64107142  0.45346478     0.19320
H2190       H  0.85564013  0.60301089  0.05085990     0.19320
C2191       C  0.60017924  0.85450384  0.50334664    -0.06510
C2192       C  0.62007210  0.85653229  0.02868304    -0.17640
C2193       C  0.64206648  0.88011485  0.03069967     0.10690
C2194       C  0.64485163  0.90160300  0.50645300    -0.06430
C2195       C  0.62451593  0.90000169  0.48152731    -0.17670
C2196       C  0.60246844  0.87659752  0.47959525     0.10720
S2197       S  0.66501080  0.88229559  0.06515420    -0.32630
S2198       S  0.57929228  0.87501771  0.44537849    -0.32640
H2199       H  0.57968889  0.84277974  0.44390113     0.28730
H2200       H  0.66899286  0.91441517  0.06452656     0.28720
H2201       H  0.61801524  0.84001301  0.04727247     0.19320
H2202       H  0.62670117  0.91634275  0.46278817     0.19320
C2203       C  0.60008097  0.64545253  0.50247136    -0.06510
C2204       C  0.61267602  0.63652912  0.47434221    -0.17640
C2205       C  0.63599695  0.61441159  0.47290692     0.10690
C2206       C  0.64642553  0.60021608  0.00015808    -0.06430
C2207       C  0.63367282  0.60896710  0.02834602    -0.17670
C2208       C  0.61071631  0.63158878  0.02988106     0.10720
S2209       S  0.65112542  0.60535551  0.43557273    -0.32630
S2210       S  0.59730186  0.64245662  0.06752421    -0.32640
H2211       H  0.56946109  0.65635928  0.05869359     0.28730
H2212       H  0.68120895  0.59788104  0.44503849     0.28720
H2213       H  0.60465325  0.64733349  0.45334383     0.19320
H2214       H  0.64194051  0.59836374  0.04933122     0.19320
C2215       C  0.90211844  0.50364636  0.35710139    -0.06510
C2216       C  0.90683277  0.98586879  0.38369077    -0.17640
C2217       C  0.88390786  0.98308572  0.40620134     0.10690
C2218       C  0.85619225  0.00001121  0.40317595    -0.06430
C2219       C  0.85218500  0.51908458  0.37737236    -0.17670
C2220       C  0.87485028  0.52136432  0.35462899     0.10720
S2221       S  0.89054587  0.95587601  0.43685464    -0.32630
S2222       S  0.86835609  0.54878543  0.32415807    -0.32640
H2223       H  0.89955175  0.55762910  0.32146559     0.28730
H2224       H  0.85988155  0.94507278  0.43778590     0.28720
H2225       H  0.92805858  0.97304367  0.38638418     0.19320
H2226       H  0.83146247  0.53292700  0.37525084     0.19320
C2227       C  0.64691091  0.00021854  0.40046015    -0.06510
C2228       C  0.62457024  0.97674613  0.40097492    -0.17640
C2229       C  0.60243891  0.97424376  0.37764549     0.10690
C2230       C  0.60174066  0.99644064  0.35387534    -0.06430
C2231       C  0.62405088  0.51984278  0.35338989    -0.17670
C2232       C  0.64654713  0.52202364  0.37628925     0.10720
S2233       S  0.57713881  0.94121104  0.37843972    -0.32630
S2234       S  0.67361939  0.55353266  0.37322442    -0.32640
H2235       H  0.68132738  0.55519898  0.40439608     0.28730
H2236       H  0.57467036  0.93820936  0.34643737     0.28720
H2237       H  0.62517846  0.95949164  0.41899279     0.19320
H2238       H  0.62363745  0.53693051  0.33519940     0.19320
C2239       C  0.59920514  0.99800875  0.14582367    -0.06510
C2240       C  0.61897261  0.52348920  0.14344491    -0.17640
C2241       C  0.64102983  0.52549753  0.12009542     0.10690
C2242       C  0.64401668  0.50115112  0.09901366    -0.06430
C2243       C  0.62395985  0.97583157  0.10107095    -0.17670
C2244       C  0.60180617  0.97384097  0.12444195     0.10720
S2245       S  0.66402276  0.56008092  0.11786582    -0.32630
S2246       S  0.57871180  0.93931223  0.12655944    -0.32640
H2247       H  0.57437840  0.93946507  0.15850283     0.28730
H2248       H  0.66745869  0.55993170  0.08582657     0.28720
H2249       H  0.61678307  0.54225456  0.15957496     0.19320
H2250       H  0.62635722  0.95697665  0.08507472     0.19320
C2251       C  0.85387347  0.49955814  0.10201119    -0.06510
C2252       C  0.87607061  0.52315089  0.10175957    -0.17640
C2253       C  0.89835135  0.52529224  0.12494945     0.10690
C2254       C  0.89909370  0.50278770  0.14841419    -0.06430
C2255       C  0.87702900  0.97915335  0.14854868    -0.17670
C2256       C  0.85460857  0.97712550  0.12559476     0.10720
S2257       S  0.92394743  0.55810348  0.12423557    -0.32630
S2258       S  0.82833894  0.94485613  0.12758116    -0.32640
H2259       H  0.82130064  0.94343960  0.09625264     0.28730
H2260       H  0.92713788  0.56053656  0.15622340     0.28720
H2261       H  0.87529848  0.54069504  0.08401787     0.19320
H2262       H  0.87769691  0.96170218  0.16638759     0.19320
C2263       C  0.50229111  0.64513475  0.40043941    -0.06510
C2264       C  0.51272690  0.61551914  0.40840224    -0.17640
C2265       C  0.51328838  0.59154813  0.38698805     0.10690
C2266       C  0.00343918  0.59705050  0.35642828    -0.06430
C2267       C  0.99267966  0.62654745  0.34870511    -0.17670
C2268       C  0.99197490  0.65035967  0.36998741     0.10720
S2269       S  0.52803086  0.55504065  0.39998128    -0.32630
S2270       S  0.97608603  0.68630521  0.35671944    -0.32640
H2271       H  0.00533782  0.70048939  0.35545448     0.28730
H2272       H  0.49898012  0.54061163  0.39758209     0.28720
H2273       H  0.52081129  0.61096152  0.43149659     0.19320
H2274       H  0.98433874  0.63124690  0.32572408     0.19320
C2275       C  0.49700007  0.89737771  0.35284358    -0.06510
C2276       C  0.52283173  0.87815944  0.35487814    -0.17640
C2277       C  0.52476542  0.85526337  0.37731519     0.10690
C2278       C  0.50062311  0.85226447  0.39903391    -0.06430
C2279       C  0.97451639  0.87122089  0.39668738    -0.17670
C2280       C  0.97196848  0.89295946  0.37309452     0.10720
S2281       S  0.55862463  0.83096439  0.37614579    -0.32630
S2282       S  0.93533396  0.91207251  0.36844925    -0.32640
H2283       H  0.93806286  0.91827965  0.33690613     0.28730
H2284       H  0.55557098  0.81651752  0.40468570     0.28720
H2285       H  0.54170872  0.88103061  0.33874660     0.19320
H2286       H  0.95533438  0.86795698  0.41238742     0.19320
C2287       C  0.49945284  0.89935590  0.14633550    -0.06510
C2288       C  0.50312139  0.90851041  0.11554212    -0.17640
C2289       C  0.50504942  0.88703667  0.09170147     0.10690
C2290       C  0.00248910  0.85508402  0.09828594    -0.06430
C2291       C  0.99880486  0.84606950  0.12905348    -0.17670
C2292       C  0.99691829  0.86736130  0.15277759     0.10720
S2293       S  0.51180450  0.90239613  0.05383548    -0.32630
S2294       S  0.98981019  0.85132522  0.19033068    -0.32640
H2295       H  0.96319130  0.86932258  0.19477029     0.28730
H2296       H  0.53728950  0.88308777  0.04833728     0.28720
H2297       H  0.50532478  0.93270554  0.10987246     0.19320
H2298       H  0.99646345  0.82194165  0.13495484     0.19320
C2299       C  0.99724944  0.64466006  0.09951185    -0.06510
C2300       C  0.98488533  0.65161313  0.12846138    -0.17640
C2301       C  0.98347515  0.62966005  0.15196874     0.10690
C2302       C  0.99624224  0.60004143  0.14742471    -0.06430
C2303       C  0.50810738  0.59284327  0.11834528    -0.17670
C2304       C  0.50820427  0.61435512  0.09435244     0.10720
S2305       S  0.96339337  0.64067794  0.18639152    -0.32630
S2306       S  0.52356384  0.60155072  0.05823516    -0.32640
H2307       H  0.49477562  0.60402209  0.04338063     0.28730
H2308       H  0.94760804  0.61248194  0.18937249     0.28720
H2309       H  0.97533505  0.67423297  0.13268190     0.19320
H2310       H  0.51764189  0.57020434  0.11419044     0.19320
O2311       O  0.91332506  0.50145816  0.70051454    -0.75680
O2312       O  0.95131685  0.50239963  0.66409577    -0.54580
C2313       C  0.92284546  0.50248177  0.67254807     0.78050
O2314       O  0.00411150  0.58333690  0.80386530    -0.60280
O2315       O  0.00282272  0.54486274  0.83936943    -0.53310
C2316       C  0.00377856  0.57342081  0.83179003     0.70070
O2317       O  0.99938402  0.58567793  0.70014758    -0.74840
O2318       O  0.49846904  0.54797014  0.66406407    -0.55400
C2319       C  0.99798986  0.57640083  0.67217730     0.76070
O2320       O  0.91486089  0.50179121  0.80418629    -0.59980
O2321       O  0.95379395  0.00020412  0.83947056    -0.53100
C2322       C  0.92509131  0.50190783  0.83196538     0.72660
Zr2323     Zr  0.93555644  0.50022192  0.75195829     2.54710
O2324       O  0.89773127  0.54160370  0.75147928    -0.80550
O2325       O  0.89596125  0.96036706  0.75348783    -0.93960
Zr2326     Zr  0.00188115  0.56338579  0.75162655     2.64680
O2327       O  0.96191454  0.60270127  0.75402516    -0.98920
O2328       O  0.54307291  0.60159880  0.75054172    -0.80980
O2329       O  0.96798894  0.53254629  0.72205193    -0.84340
O2330       O  0.96868168  0.53185699  0.78140801    -2.19050
O2331       O  0.49828899  0.91198263  0.80118965    -0.67730
O2332       O  0.99717036  0.94952275  0.83763207    -0.52290
C2333       C  0.49715868  0.92126493  0.82906667     0.71040
O2334       O  0.58633053  0.99812999  0.69824166    -0.60630
O2335       O  0.54738861  0.49791282  0.66284669    -0.52610
C2336       C  0.57604622  0.99780179  0.67053290     0.72850
O2337       O  0.58750252  0.99829525  0.80169637    -0.72030
O2338       O  0.54946168  0.99519102  0.83793730    -0.50710
C2339       C  0.57797509  0.99644138  0.82963234     0.74230
O2340       O  0.50114110  0.91413954  0.69877405    -0.67360
O2341       O  0.49791345  0.95190628  0.66284204    -0.54560
C2342       C  0.49939802  0.92334941  0.67083138     0.72610
Zr2343     Zr  0.49915862  0.93479006  0.75032239     2.77540
O2344       O  0.53781050  0.89410328  0.75026913    -0.98110
O2345       O  0.95631797  0.89847398  0.74920718    -0.78930
Zr2346     Zr  0.56529716  0.99810211  0.75019464     2.70070
O2347       O  0.60367680  0.95722597  0.75020087    -0.80180
O2348       O  0.60409952  0.53872385  0.74895062    -0.99260
Zr2349     Zr  0.49964016  0.49960314  0.69194427     2.21500
Zr2350     Zr  0.00109670  0.99789230  0.80993737     2.11130
O2351       O  0.53321405  0.96523173  0.77998790    -2.47950
O2352       O  0.53242754  0.96624523  0.72051615    -0.79970
O2353       O  0.96709124  0.96634230  0.78098071    -0.72160
O2354       O  0.53361576  0.53157372  0.72088764    -2.33120
O2355       O  0.96626382  0.96721055  0.72131316    -2.29330
O2356       O  0.53439570  0.53069220  0.78092924    -0.73920
H2357       H  0.95655391  0.54464616  0.79485184     0.78070
H2358       H  0.54623877  0.54413881  0.70751016     0.79160
H2359       H  0.54574989  0.95211984  0.79288061     0.81390
H2360       H  0.95324351  0.95490787  0.70819461     0.78990
H2361       H  0.55854612  0.59330335  0.73606182     0.42030
H2362       H  0.59853445  0.55239876  0.76617281     0.41000
H2363       H  0.59330139  0.93985459  0.73979490     0.40680
H2364       H  0.55118614  0.89845954  0.76815241     0.38610
H2365       H  0.94106110  0.90691530  0.76383350     0.41740
H2366       H  0.90001125  0.94757092  0.73521215     0.36530
H2367       H  0.90819988  0.55873335  0.74059779     0.42640
H2368       H  0.94917987  0.59715322  0.77208800     0.39060
H2369       H  0.52628055  0.87527060  0.75609705     0.43980
H2370       H  0.87649689  0.97132039  0.74864866     0.42700
H2371       H  0.97299972  0.62162183  0.76020407     0.42840
H2372       H  0.62344512  0.52855602  0.75562730     0.43190
O2373       O  0.99840475  0.69766830  0.58559282    -0.75680
O2374       O  0.49913706  0.66204697  0.54759659    -0.54580
C2375       C  0.99843277  0.66963407  0.57597589     0.78050
O2376       O  0.91447234  0.80191982  0.49598804    -0.60280
O2377       O  0.95310136  0.83767856  0.49821965    -0.53310
C2378       C  0.92451136  0.82985889  0.49636845     0.70070
O2379       O  0.91409283  0.69773163  0.50224155    -0.74840
O2380       O  0.95281111  0.66200257  0.50055093    -0.55400
C2381       C  0.92424988  0.66989717  0.50189770     0.76070
O2382       O  0.00290641  0.80226498  0.58414667    -0.59980
O2383       O  0.00038560  0.83803043  0.54610086    -0.53100
C2384       C  0.00214211  0.83037413  0.57450802     0.72660
Zr2385     Zr  0.00007998  0.74988607  0.56416808     2.54710
O2386       O  0.95867165  0.75176503  0.60188996    -0.80550
O2387       O  0.53967645  0.74903012  0.60384960    -0.93960
Zr2388     Zr  0.93553098  0.74976088  0.49956164     2.64680
O2389       O  0.89716019  0.75143797  0.54038331    -0.98920
O2390       O  0.89593314  0.74793947  0.95994781    -0.80980
O2391       O  0.96747724  0.71996340  0.53238202    -0.84340
O2392       O  0.96734816  0.77971392  0.53213343    -2.19050
O2393       O  0.58705228  0.80175398  0.50437255    -0.67730
O2394       O  0.54854947  0.83738410  0.49961239    -0.52290
C2395       C  0.57707680  0.82960595  0.00248897     0.71040
O2396       O  0.50339501  0.69772501  0.91479332    -0.60630
O2397       O  0.50107277  0.66164783  0.95259304    -0.52610
C2398       C  0.50223448  0.66969827  0.92414698     0.72850
O2399       O  0.50083300  0.80025454  0.91316737    -0.72030
O2400       O  0.00012324  0.83653958  0.95086455    -0.50710
C2401       C  0.50060258  0.82817199  0.92261706     0.74230
O2402       O  0.58712661  0.69791721  0.50181193    -0.67360
O2403       O  0.54842082  0.66203222  0.50151937    -0.54560
C2404       C  0.57701091  0.67005732  0.00212426     0.72610
Zr2405     Zr  0.56561342  0.74980867  0.50055806     2.77540
O2406       O  0.60337652  0.75094733  0.95914281    -0.98110
O2407       O  0.60553375  0.74849989  0.53984865    -0.78930
Zr2408     Zr  0.50094523  0.74925631  0.93583123     2.70070
O2409       O  0.53932755  0.75016038  0.89505092    -0.80180
O2410       O  0.95792146  0.74787090  0.89988486    -0.99260
Zr2411     Zr  0.50062288  0.69077105  0.50009417     2.21500
Zr2412     Zr  0.00063142  0.80859671  0.49919580     2.11130
O2413       O  0.53394181  0.77927957  0.96722354    -2.47950
O2414       O  0.53408845  0.71972682  0.96767273    -0.79970
O2415       O  0.53323373  0.77967258  0.53251268    -0.72160
O2416       O  0.96756130  0.71966940  0.96724205    -2.33120
O2417       O  0.53324051  0.72006509  0.53302600    -2.29330
O2418       O  0.96780829  0.77935588  0.96676894    -0.73920
H2419       H  0.95475600  0.79317807  0.54447054     0.78070
H2420       H  0.95504827  0.70628748  0.95470235     0.79160
H2421       H  0.54670499  0.79254736  0.95470228     0.81390
H2422       H  0.54568310  0.70686469  0.54589566     0.78990
H2423       H  0.90332612  0.73232183  0.94523772     0.42030
H2424       H  0.94367032  0.76412107  0.90705636     0.41000
H2425       H  0.55941312  0.74919906  0.90588386     0.40680
H2426       H  0.60052528  0.77121372  0.94908413     0.38610
H2427       H  0.59523741  0.75656761  0.55841322     0.41740
H2428       H  0.55257552  0.73087091  0.59910700     0.36530
H2429       H  0.94297279  0.73713097  0.59416592     0.42640
H2430       H  0.90201362  0.77031584  0.55204223     0.39060
H2431       H  0.62358738  0.75258787  0.96966211     0.43980
H2432       H  0.52845561  0.74325220  0.62281421     0.42700
H2433       H  0.87749316  0.75616523  0.52976040     0.42840
H2434       H  0.96656097  0.75606335  0.88046761     0.43190
O2435       O  0.80304301  0.58606577  0.50156306    -0.75680
O2436       O  0.83883596  0.54742487  0.50244080    -0.54580
C2437       C  0.83097880  0.57591046  0.50196701     0.78050
O2438       O  0.69688458  0.00150399  0.58635869    -0.60280
O2439       O  0.66134786  0.49953340  0.54771941    -0.53310
C2440       C  0.66902633  0.50066239  0.57616493     0.70070
O2441       O  0.80116140  0.99972687  0.58809312    -0.74840
O2442       O  0.83776974  0.00075165  0.55032669    -0.55400
C2443       C  0.82941238  0.50001614  0.57855734     0.76070
O2444       O  0.69894658  0.58665972  0.50049575    -0.59980
O2445       O  0.66257488  0.54843621  0.49993350    -0.53100
C2446       C  0.67086881  0.57686043  0.50007555     0.72660
Zr2447     Zr  0.75077328  0.56471510  0.50068273     2.54710
O2448       O  0.75061010  0.60386061  0.54037888    -0.80550
O2449       O  0.75087287  0.60258508  0.95934793    -0.93960
Zr2450     Zr  0.74944026  0.00066258  0.56584058     2.64680
O2451       O  0.75050516  0.54171085  0.60360123    -0.98920
O2452       O  0.74751124  0.96074528  0.60513651    -0.80980
O2453       O  0.78016195  0.53309834  0.53418972    -0.84340
O2454       O  0.72018921  0.53325102  0.53327547    -2.19050
O2455       O  0.69947728  0.50047407  0.91481691    -0.67730
O2456       O  0.66278246  0.49938512  0.95245547    -0.52290
C2457       C  0.67125764  0.00009872  0.92416314     0.71040
O2458       O  0.80227500  0.91406705  0.49987842    -0.60630
O2459       O  0.83841631  0.95229354  0.50229150    -0.52610
C2460       C  0.83042303  0.92385343  0.00079747     0.72850
O2461       O  0.69780320  0.91458699  0.50696125    -0.72030
O2462       O  0.66196430  0.95283849  0.50177436    -0.50710
C2463       C  0.66983763  0.92454670  0.00527629     0.74230
O2464       O  0.80333492  0.49930118  0.91638726    -0.67360
O2465       O  0.83906904  0.99940736  0.95492465    -0.54560
C2466       C  0.83141595  0.99924075  0.92643149     0.72610
Zr2467     Zr  0.75109735  0.49957204  0.93724826     2.77540
O2468       O  0.75178010  0.95857620  0.89942238    -0.98110
O2469       O  0.75238261  0.53972403  0.89817880    -0.78930
Zr2470     Zr  0.75009085  0.93552755  0.50245782     2.70070
O2471       O  0.74660652  0.89687802  0.96242929    -0.80180
O2472       O  0.75361142  0.89695158  0.54295827    -0.99260
Zr2473     Zr  0.80961234  0.99995279  0.50228670     2.21500
Zr2474     Zr  0.69101715  0.50034259  0.50059989     2.11130
O2475       O  0.72062336  0.96698570  0.96888487    -2.47950
O2476       O  0.78058899  0.96699795  0.96971160    -0.79970
O2477       O  0.72085279  0.53288223  0.96796732    -0.72160
O2478       O  0.77974012  0.96745508  0.53503862    -2.33120
O2479       O  0.78086397  0.53255840  0.96876275    -2.29330
O2480       O  0.71976968  0.96781030  0.53413271    -0.73920
H2481       H  0.70678393  0.54601699  0.54548848     0.78070
H2482       H  0.79289447  0.95479256  0.54775053     0.79160
H2483       H  0.70735062  0.95422336  0.95646791     0.81390
H2484       H  0.79438791  0.54500164  0.95617266     0.78990
H2485       H  0.75818513  0.94294165  0.59587169     0.42030
H2486       H  0.73703842  0.90247488  0.55757511     0.41000
H2487       H  0.76033222  0.90464594  0.94594575     0.40680
H2488       H  0.73330960  0.94592692  0.90410030     0.38610
H2489       H  0.74374794  0.55805135  0.90846559     0.41740
H2490       H  0.77021046  0.59868854  0.94787128     0.36530
H2491       H  0.76344716  0.59505957  0.55703450     0.42640
H2492       H  0.73459015  0.55649081  0.59658395     0.39060
H2493       H  0.74677470  0.96895947  0.87978715     0.43980
H2494       H  0.75446266  0.62248072  0.96971424     0.42700
H2495       H  0.74167753  0.53232314  0.62239469     0.42840
H2496       H  0.74630795  0.87769780  0.53331202     0.43190
C2497       C  0.90142440  0.85484766  0.49549072    -0.06510
C2498       C  0.90436483  0.87908467  0.51643052    -0.17640
C2499       C  0.88154984  0.90172390  0.51893798     0.10690
C2500       C  0.85524644  0.90054148  0.99967686    -0.06430
C2501       C  0.85276310  0.87673319  0.97817909    -0.17670
C2502       C  0.87573725  0.85427992  0.97551080     0.10720
S2503       S  0.88666365  0.93027857  0.54836411    -0.32630
S2504       S  0.87167324  0.82648006  0.94522386    -0.32640
H2505       H  0.90353382  0.82378374  0.93930348     0.28730
H2506       H  0.85519603  0.93204831  0.55594890     0.28720
H2507       H  0.92399232  0.87969178  0.53187505     0.19320
H2508       H  0.83311509  0.87606597  0.96277250     0.19320
C2509       C  0.90133153  0.64505707  0.50268704    -0.06510
C2510       C  0.89153491  0.63257555  0.97477186    -0.17640
C2511       C  0.86914263  0.60936902  0.97395156     0.10690
C2512       C  0.85589109  0.59879551  0.50164273    -0.06430
C2513       C  0.86578956  0.61117359  0.52959443    -0.17670
C2514       C  0.88864885  0.63397489  0.53044940     0.10720
S2515       S  0.85765525  0.59508414  0.93687330    -0.32630
S2516       S  0.90017233  0.64829811  0.56751210    -0.32640
H2517       H  0.93052579  0.65644296  0.55939608     0.28730
H2518       H  0.85139021  0.56483321  0.94641098     0.28960
H2519       H  0.90132772  0.64107091  0.95346463     0.19320
H2520       H  0.85563763  0.60300753  0.55086027     0.19320
C2521       C  0.60019393  0.85450456  0.00335141    -0.06510
C2522       C  0.62005684  0.85653480  0.52867813    -0.17640
C2523       C  0.64204921  0.88011892  0.53069257     0.10690
C2524       C  0.64487031  0.90160133  0.00646234    -0.06430
C2525       C  0.62453458  0.90000301  0.98153633    -0.17670
C2526       C  0.60248534  0.87660028  0.97960192     0.10720
S2527       S  0.66499258  0.88230511  0.56514731    -0.32630
S2528       S  0.57930978  0.87502526  0.94538448    -0.32640
H2529       H  0.57970197  0.84278733  0.94390483     0.28730
H2530       H  0.66896823  0.91442550  0.56451795     0.28720
H2531       H  0.61800088  0.84001711  0.54726908     0.19320
H2532       H  0.62672089  0.91634569  0.96279870     0.19320
C2533       C  0.60008623  0.64545309  0.00247182    -0.06510
C2534       C  0.61268037  0.63652945  0.97434245    -0.17640
C2535       C  0.63600030  0.61441123  0.97290689     0.10690
C2536       C  0.64642237  0.60021643  0.50015811    -0.06430
C2537       C  0.63366902  0.60896740  0.52834585    -0.17670
C2538       C  0.61071177  0.63158862  0.52988068     0.10720
S2539       S  0.65112766  0.60535424  0.93557250    -0.32630
S2540       S  0.59729751  0.64245651  0.56752387    -0.32640
H2541       H  0.56945729  0.65636031  0.55869338     0.28730
H2542       H  0.68121113  0.59787883  0.94503772     0.28720
H2543       H  0.60465762  0.64733411  0.95334419     0.19320
H2544       H  0.64193681  0.59836434  0.54933116     0.19320
C2545       C  0.90211881  0.50364681  0.85710107    -0.06510
C2546       C  0.90692445  0.98583580  0.88364110    -0.17640
C2547       C  0.88401398  0.98307913  0.90619205     0.10690
C2548       C  0.85634196  0.00009644  0.90324028    -0.06430
C2549       C  0.85218571  0.51908538  0.87737221    -0.17670
C2550       C  0.87485080  0.52136495  0.85462874     0.10720
S2551       S  0.89054799  0.95584124  0.93683820    -0.32630
S2552       S  0.86835655  0.54878601  0.82415778    -0.32640
H2553       H  0.89955223  0.55762953  0.82146509     0.28730
H2554       H  0.85985828  0.94509085  0.93770961     0.28720
H2555       H  0.92815347  0.97298968  0.88629205     0.19320
H2556       H  0.83146323  0.53292792  0.87525085     0.19320
C2557       C  0.64689944  0.00022494  0.90047773    -0.06510
C2558       C  0.62455569  0.97675514  0.90099082    -0.17640
C2559       C  0.60243074  0.97424879  0.87765426     0.10690
C2560       C  0.60174081  0.99643885  0.85387642    -0.06430
C2561       C  0.62405125  0.51984304  0.85339017    -0.17670
C2562       C  0.64654784  0.52202389  0.87628928     0.10720
S2563       S  0.57712844  0.94121786  0.87844959    -0.32630
S2564       S  0.67362023  0.55353271  0.87322377    -0.32640
H2565       H  0.68132932  0.55519885  0.90439514     0.28730
H2566       H  0.57466721  0.93821005  0.84644726     0.28720
H2567       H  0.62515791  0.95950399  0.91901203     0.19320
H2568       H  0.62363773  0.53693068  0.83519960     0.19320
C2569       C  0.59916158  0.99800800  0.64580128    -0.06510
C2570       C  0.61897244  0.52348863  0.64344558    -0.17640
C2571       C  0.64102942  0.52549694  0.62009593     0.10690
C2572       C  0.64401584  0.50115059  0.59901407    -0.06430
C2573       C  0.62390205  0.97583754  0.60103746    -0.17670
C2574       C  0.60175754  0.97384216  0.62441668     0.10720
S2575       S  0.66402259  0.56008016  0.61786622    -0.32630
S2576       S  0.57867134  0.93930861  0.62654269    -0.32640
H2577       H  0.57434913  0.93946091  0.65848759     0.28730
H2578       H  0.66745745  0.55993139  0.58582684     0.28720
H2579       H  0.61678311  0.54225394  0.65957571     0.19320
H2580       H  0.62629879  0.95698249  0.58504128     0.19320
C2581       C  0.85387269  0.49955736  0.60201095    -0.06510
C2582       C  0.87606986  0.52315014  0.60175923    -0.17640
C2583       C  0.89835081  0.52529158  0.62494902     0.10690
C2584       C  0.89909344  0.50278708  0.64841383    -0.06430
C2585       C  0.87697718  0.97914453  0.64858223    -0.17670
C2586       C  0.85454654  0.97712429  0.62563680     0.10720
S2587       S  0.92394678  0.55810292  0.62423498    -0.32630
S2588       S  0.82827227  0.94485882  0.62762512    -0.32640
H2589       H  0.82125060  0.94343314  0.59629287     0.28730
H2590       H  0.92713747  0.56053602  0.65622278     0.28720
H2591       H  0.87529757  0.54069429  0.58401755     0.19320
H2592       H  0.87765186  0.96168849  0.66641611     0.19320
C2593       C  0.50229450  0.64513534  0.90043954    -0.06510
C2594       C  0.51272908  0.61551930  0.90840224    -0.17640
C2595       C  0.51328884  0.59154814  0.88698819     0.10690
C2596       C  0.00343952  0.59705085  0.85642852    -0.06430
C2597       C  0.99268096  0.62654823  0.84870553    -0.17670
C2598       C  0.99197771  0.65036057  0.86998782     0.10720
S2599       S  0.52802955  0.55504000  0.89998155    -0.32630
S2600       S  0.97608950  0.68630662  0.85672045    -0.32640
H2601       H  0.00534175  0.70048968  0.85545379     0.28730
H2602       H  0.49897829  0.54061214  0.89758171     0.28720
H2603       H  0.52081392  0.61096146  0.93149640     0.19320
H2604       H  0.98433974  0.63124794  0.82572467     0.19320
C2605       C  0.49700007  0.89737840  0.85284486    -0.06510
C2606       C  0.52283381  0.87816299  0.85487981    -0.17640
C2607       C  0.52476987  0.85526752  0.87731715     0.10690
C2608       C  0.50062746  0.85226584  0.89903518    -0.06430
C2609       C  0.97451875  0.87121941  0.89668843    -0.17670
C2610       C  0.97196895  0.89295791  0.87309572     0.10720
S2611       S  0.55863216  0.83097278  0.87614938    -0.32630
S2612       S  0.93533310  0.91206758  0.86845089    -0.32640
H2613       H  0.93806157  0.91827792  0.83690839     0.28730
H2614       H  0.55557910  0.81652601  0.90468945     0.28720
H2615       H  0.54171069  0.88103607  0.83874846     0.19320
H2616       H  0.95533698  0.86795349  0.91238836     0.19320
C2617       C  0.49944102  0.89935314  0.64633547    -0.06510
C2618       C  0.50310827  0.90850806  0.61554204    -0.17640
C2619       C  0.50504146  0.88703447  0.59170177     0.10690
C2620       C  0.00248471  0.85508167  0.59828635    -0.06430
C2621       C  0.99880257  0.84606665  0.62905401    -0.17670
C2622       C  0.99691278  0.86735827  0.65277798     0.10720
S2623       S  0.51179973  0.90239427  0.55383642    -0.32630
S2624       S  0.98980784  0.85132158  0.69033139    -0.32640
H2625       H  0.96318801  0.86931707  0.69477286     0.28730
H2626       H  0.53728404  0.88308470  0.54833915     0.28720
H2627       H  0.50530768  0.93270352  0.60987224     0.19320
H2628       H  0.99646485  0.82193850  0.63495556     0.19320
C2629       C  0.99724625  0.64465886  0.59951149    -0.06510
C2630       C  0.98488251  0.65161181  0.62846118    -0.17640
C2631       C  0.98347374  0.62965902  0.65196880     0.10690
C2632       C  0.99624182  0.60004084  0.64742480    -0.06430
C2633       C  0.50810690  0.59284281  0.61834528    -0.17670
C2634       C  0.50820247  0.61435439  0.59435220     0.10720
S2635       S  0.96339233  0.64067664  0.68639187    -0.32630
S2636       S  0.52356211  0.60155038  0.55823481    -0.32640
H2637       H  0.49477358  0.60402033  0.54338065     0.28730
H2638       H  0.94760749  0.61248038  0.68937306     0.28720
H2639       H  0.97533136  0.67423130  0.63268164     0.19320
H2640       H  0.51764225  0.57020421  0.61419056     0.19320
loop_ 
_geom_bond_atom_site_label_1 
_geom_bond_atom_site_label_2 
_geom_bond_distance 
_geom_bond_site_symmetry_2 
_ccdc_geom_bond_type 
O1          Zr13   2.442       .  S
O1            C3   1.288       .  A
O2        Zr1359   2.421   1_545  S
O2            C3   1.286       .  A
C3          C274   1.471       .  S
O4          Zr16   2.444       .  S
O4            C6   1.290       .  A
O5         Zr700   2.419   1_545  S
O5            C6   1.284       .  A
C6          C286   1.491       .  S
O7          Zr16   2.443       .  S
O7            C9   1.288       .  A
O8          Zr39   2.424   1_545  S
O8         C1329   1.288       .  A
C9         O1328   1.288       .  A
C9          C322   1.489       .  S
O10         Zr13   2.449       .  S
O10          C12   1.290       .  A
O11         Zr40   2.421       .  S
O11         C672   1.286       .  A
C12         O671   1.286       .  A
C12         C235   1.482       .  S
Zr13         O14   2.434       .  S
Zr13        O675   2.435   1_545  S
Zr13         O19   2.371       .  S
Zr13         O20   2.368       .  S
Zr13        O703   2.370   1_545  S
Zr13        O705   2.375   1_545  S
O14          H57   0.990       .  S
O15        Zr673   2.435       .  S
O15          H56   0.990       .  S
O15          H60   0.990       .  S
Zr16         O17   2.436       .  S
Zr16       O1338   2.435       .  S
Zr16         O20   2.368       .  S
Zr16         O19   2.371       .  S
Zr16       O1364   2.370       .  S
Zr16       O1366   2.371       .  S
O17          H58   0.990       .  S
O17          H61   0.990       .  S
O18       Zr1336   2.435       .  S
O18          H51   0.990       .  S
O19       Zr1359   2.382   1_545  S
O20        Zr700   2.384   1_545  S
O20          H47   0.966       .  S
O21         Zr33   2.426       .  S
O21          C23   1.284       .  A
O22         Zr40   2.425       .  S
O22        C1343   1.286       .  A
C23        O1342   1.286       .  A
C23         C295   1.464       .  S
O24         Zr36   2.442       .  S
O24          C26   1.288       .  A
O25         Zr39   2.426   1_455  S
O25         C686   1.287       .  A
C26         O685   1.287       .  A
C26         C259   1.471       .  S
O27         Zr36   2.443       .  S
O27          C29   1.288       .  A
O28       Zr1360   2.425       .  S
O28          C29   1.287       .  A
C29         C250   1.475       .  S
O30         Zr33   2.427   1_455  S
O30          C32   1.283   1_455  A
O31        Zr699   2.438       .  S
O31          C32   1.289       .  A
C32         C307   1.497       .  S
Zr33         O34   2.436   1_655  S
Zr33       O1355   2.434       .  S
Zr33         O41   2.368   1_655  S
Zr33         O42   2.368   1_655  S
Zr33       O1365   2.366       .  S
Zr33       O1363   2.370       .  S
O34          H54   0.990       .  S
O34          H59   0.990       .  S
O35       Zr1353   2.434       .  S
O35          H55   0.990       .  S
Zr36         O37   2.434       .  S
Zr36        O698   2.435       .  S
Zr36         O42   2.373       .  S
Zr36         O41   2.373       .  S
Zr36        O706   2.370       .  S
Zr36        O704   2.371       .  S
O37          H53   0.990       .  S
O38        Zr696   2.435   1_545  S
O38          H52   0.990       .  S
O38          H62   0.990       .  S
Zr39       O1322   2.421   1_565  S
Zr39        O691   2.438       .  S
Zr39         O44   2.387   1_665  S
Zr39       O1339   2.382   1_565  S
Zr39        O702   2.379   1_655  S
Zr39       O2025   2.383       .  S
Zr40        O665   2.419       .  S
Zr40       O1348   2.425       .  S
Zr40         O43   2.378       .  S
Zr40        O680   2.384       .  S
Zr40       O1361   2.383       .  S
Zr40       O2026   2.384       .  S
O41       Zr1360   2.383       .  S
O41          H49   0.966       .  S
O42        Zr699   2.379   1_455  S
O43        Zr673   2.370       .  S
O43       Zr1353   2.370       .  S
O44       Zr1336   2.370       .  S
O44        Zr696   2.371   1_545  S
O44          H48   0.966       .  S
O45        Zr673   2.375       .  S
O45       Zr1353   2.366       .  S
O45       Zr2019   2.383       .  S
O45          H50   0.966       .  S
O46       Zr1336   2.371       .  S
O46        Zr696   2.370   1_545  S
O46       Zr2020   2.384   1_545  S
O63         Zr75   2.452       .  S
O63          C65   1.291       .  A
O64        Zr101   2.414   1_655  S
O64        C1385   1.283       .  A
C65        O1384   1.283       .  A
C65         C319   1.491       .  S
O66         Zr78   2.449       .  S
O66          C68   1.290       .  A
O67        Zr102   2.416       .  S
O67          C68   1.285       .  A
C68         C187   1.477       .  S
O69         Zr78   2.446   1_554  S
O69          C71   1.288       .  A
O70       Zr1421   2.416       .  S
O70          C71   1.284       .  A
C71         C199   1.465       .  S
O72         Zr75   2.445       .  S
O72          C74   1.291       .  A
O73        Zr102   2.419   1_554  S
O73          C74   1.284       .  A
C74         C310   1.497       .  S
Zr75         O76   2.434       .  S
Zr75       O1397   2.435       .  S
Zr75         O81   2.370       .  S
Zr75         O82   2.372       .  S
Zr75       O1425   2.370       .  S
Zr75       O1427   2.368       .  S
O76         H119   0.990       .  S
O77       Zr1395   2.435       .  S
O77         H118   0.990       .  S
O77         H122   0.990       .  S
Zr78         O79   2.436   1_556  S
Zr78        O410   2.435       .  S
Zr78         O82   2.371   1_556  S
Zr78         O81   2.371   1_556  S
Zr78        O436   2.375       .  S
Zr78        O438   2.372       .  S
O79         H120   0.990       .  S
O79         H123   0.990       .  S
O80        Zr408   2.435       .  S
O80         H113   0.990       .  S
O81       Zr1421   2.382       .  S
O82        Zr102   2.385   1_554  S
O82         H109   0.966       .  S
O83         Zr95   2.447       .  S
O83         C415   1.288       .  A
O84       Zr1422   2.420       .  S
O84         C415   1.286   1_556  A
C85         O413   1.288       .  A
C85         O414   1.286       .  A
C85         C211   1.473       .  S
O86         Zr98   2.428       .  S
O86          C88   1.284       .  A
O87        Zr431   2.434       .  S
O87          C88   1.288       .  A
C88         C283   1.490       .  S
O89         Zr98   2.423       .  S
O89          C91   1.284       .  A
O90        Zr432   2.428       .  S
O90        C1411   1.287       .  A
C91        O1410   1.287       .  A
C91         C298   1.464       .  S
O92         Zr95   2.442       .  S
O92         C424   1.287       .  A
O93        Zr101   2.418       .  S
O93         C424   1.285       .  A
C94         O422   1.287       .  A
C94         O423   1.285       .  A
C94         C223   1.464       .  S
Zr95         O97   2.434       .  S
Zr95        O426   2.436   1_554  S
Zr95        O107   2.370       .  S
Zr95        O105   2.369       .  S
Zr95        O433   2.371   1_554  S
Zr95        O434   2.376   1_554  S
O96        Zr425   2.436       .  S
O96         H116   0.990       .  S
O96         H121   0.990       .  S
O97         H117   0.990       .  S
Zr98         O99   2.433       .  S
Zr98       O1420   2.435   1_455  S
Zr98        O104   2.371       .  S
Zr98        O103   2.373       .  S
Zr98       O1428   2.369   1_455  S
Zr98       O1426   2.365   1_455  S
O99         H115   0.990       .  S
O100      Zr1418   2.435       .  S
O100        H114   0.990       .  S
O100        H124   0.990       .  S
Zr101      O1390   2.416   1_455  S
Zr101       O417   2.434   1_554  S
Zr101       O107   2.385       .  S
Zr101      O1401   2.382   1_455  S
Zr101       O434   2.378   1_554  S
Zr101      O1756   2.380   1_454  S
Zr102      O1404   2.420       .  S
Zr102       O420   2.428       .  S
Zr102      O1753   2.381       .  S
Zr102      O1425   2.381   1_556  S
Zr102       O438   2.377       .  S
O103       Zr425   2.371       .  S
O103      Zr1752   2.381       .  S
O103        H111   0.965       .  S
O104       Zr425   2.376       .  S
O104       Zr431   2.378       .  S
O105      Zr1395   2.370       .  S
O105      Zr1422   2.381   1_554  S
O106       Zr408   2.375       .  S
O106      Zr1418   2.365       .  S
O106      Zr1751   2.380       .  S
O106        H110   0.966       .  S
O107      Zr1395   2.368       .  S
O107        H112   0.965       .  S
O108       Zr408   2.372       .  S
O108      Zr1418   2.369       .  S
O108       Zr432   2.377       .  S
O125       Zr137   2.444       .  S
O125        C127   1.287       .  A
O126       Zr823   2.418   1_545  S
O126        C127   1.285       .  A
C127        C202   1.466       .  S
O128       Zr140   2.444       .  S
O128        C790   1.288       .  A
O129       Zr164   2.423   1_565  S
O129        C130   1.286   1_565  A
C130        O788   1.288       .  A
C130        C262   1.471       .  S
O131       Zr140   2.439       .  S
O131        C793   1.288       .  A
O132       Zr163   2.424       .  S
O132        C793   1.286       .  A
C133        O791   1.288   1_545  A
C133        O792   1.286       .  A
C133        C271   1.472   1_545  S
O134       Zr137   2.438       .  S
O134        C136   1.287       .  A
O135       Zr164   2.427   1_556  S
O135        C136   1.286   1_556  A
C136        C226   1.467       .  S
Zr137       O138   2.434       .  S
Zr137       O469   2.435   1_554  S
Zr137       O143   2.372       .  S
Zr137       O144   2.370       .  S
Zr137       O497   2.375   1_554  S
Zr137       O499   2.369   1_554  S
O138        H181   0.990       .  S
O139       Zr467   2.435       .  S
O139        H180   0.990       .  S
O139        H184   0.990       .  S
Zr140       O142   2.434       .  S
Zr140       O801   2.435       .  S
Zr140       O168   2.373       .  S
Zr140       O170   2.370       .  S
Zr140       O804   2.370       .  S
Zr140       O803   2.372       .  S
O141       Zr800   2.435       .  S
O141        H182   0.990       .  S
O141        H185   0.990       .  S
O142        H175   0.990       .  S
O143       Zr800   2.372       .  S
O143       Zr823   2.380   1_545  S
O144       Zr164   2.385       .  S
O144       Zr800   2.370       .  S
O144        H171   0.965       .  S
O145       Zr157   2.438   1_545  S
O145        C807   1.287       .  A
O146       Zr494   2.430   1_565  S
O146        C807   1.287   1_565  A
C147        O805   1.287       .  A
C147        O806   1.287       .  A
C147        C247   1.476       .  S
O148       Zr160   2.447   1_556  S
O148        C480   1.289   1_556  A
O149       Zr163   2.419       .  S
O149        C480   1.286       .  A
C150        O478   1.289       .  A
C150        O479   1.286       .  A
C150        C190   1.479       .  S
O151       Zr160   2.445       .  S
O151        C483   1.288       .  A
O152       Zr824   2.416       .  S
O152        C483   1.285       .  A
C153        O481   1.288       .  A
C153        O482   1.285       .  A
C153        C214   1.470       .  S
O154       Zr157   2.436       .  S
O154        C816   1.288       .  A
O155       Zr493   2.426       .  S
O155        C156   1.287       .  A
C156        O814   1.288       .  A
C156        C238   1.479       .  S
Zr157       O159   2.434   1_565  S
Zr157       O818   2.435       .  S
Zr157       O169   2.371   1_565  S
Zr157       O167   2.373   1_565  S
Zr157       O825   2.372       .  S
Zr157       O826   2.371       .  S
O158       Zr817   2.435       .  S
O158        H178   0.990       .  S
O158        H183   0.990       .  S
O159        H179   0.990       .  S
Zr160       O162   2.434       .  S
Zr160       O491   2.434   1_554  S
Zr160       O170   2.371       .  S
Zr160       O168   2.368       .  S
Zr160       O496   2.372   1_554  S
Zr160       O495   2.372   1_554  S
O161       Zr490   2.434       .  S
O161        H177   0.990       .  S
O162        H176   0.990       .  S
O162        H186   0.990       .  S
Zr163       O786   2.418       .  S
Zr163       O485   2.426   1_554  S
Zr163       O168   2.383       .  S
Zr163       O803   2.380       .  S
Zr163       O496   2.380   1_554  S
Zr163      O1159   2.383   1_554  S
Zr164       O476   2.430   1_544  S
Zr164       O812   2.416   1_545  S
Zr164      O1155   2.384   1_544  S
Zr164       O497   2.381   1_554  S
Zr164       O830   2.382   1_545  S
O165       Zr817   2.372       .  S
O165       Zr490   2.372       .  S
O165      Zr1154   2.384       .  S
O165        H173   0.966       .  S
O166       Zr817   2.371       .  S
O166       Zr490   2.372       .  S
O166       Zr493   2.380       .  S
O167       Zr467   2.375       .  S
O167       Zr494   2.381       .  S
O168        H172   0.965       .  S
O169       Zr467   2.369       .  S
O169      Zr1153   2.383   1_545  S
O169        H174   0.966       .  S
O170       Zr824   2.382       .  S
C187        C188   1.404   1_556  A
C187        C522   1.412       .  A
C188        C189   1.399       .  A
C188        H197   1.084       .  S
C189        C520   1.415   1_554  A
C189        S193   1.804       .  S
C190        C191   1.404       .  A
C190        C519   1.415       .  A
C191        C192   1.399       .  A
C191        H198   1.084       .  S
C192        C517   1.412       .  A
C192        S194   1.803       .  S
S193        H196   1.403       .  S
S194        H195   1.407       .  S
C199        C204   1.412       .  A
C199        C530   1.401   1_554  A
C200        C201   1.398       .  A
C200        C529   1.401       .  A
C200        H209   1.084       .  S
C201        C532   1.411       .  A
C201        S205   1.805       .  S
C202        C203   1.402       .  A
C202        C531   1.411   1_554  A
C203        C204   1.400       .  A
C203        H210   1.084       .  S
C204        S206   1.805       .  S
S205        H208   1.403       .  S
S206        H207   1.404       .  S
C211        C216   1.413       .  A
C211        C542   1.403       .  A
C212        C213   1.401       .  A
C212        C541   1.403       .  A
C212        H221   1.084       .  S
C213        C544   1.412       .  A
C213        S217   1.804       .  S
C214        C215   1.401       .  A
C214        C543   1.412       .  A
C215        C216   1.397       .  A
C215        H222   1.084       .  S
C216        S218   1.800       .  S
S217        H220   1.407       .  S
S218        H219   1.403       .  S
C223        C224   1.399       .  A
C223        C558   1.413       .  A
C224        C225   1.396       .  A
C224        H233   1.084       .  S
C225        C556   1.411       .  A
C225        S229   1.801       .  S
C226        C227   1.402       .  A
C226        C555   1.411   1_554  A
C227        C228   1.400       .  A
C227        H234   1.084       .  S
C228        C553   1.413       .  A
C228        S230   1.807       .  S
S229        H232   1.403       .  S
S230        H231   1.401       .  S
C235        C240   1.414       .  A
C235        C896   1.405   1_545  A
C236        C237   1.400       .  A
C236        C895   1.405       .  A
C236        H245   1.081       .  S
C237        C238   1.413       .  A
C237        S241   1.804       .  S
C238        C899   1.404       .  A
C239        C240   1.398       .  A
C239        C898   1.404       .  A
C239        H246   1.084       .  S
C240        S242   1.803       .  S
S241        H244   1.407       .  S
S242        H243   1.408       .  S
C247        C248   1.405       .  A
C247        C912   1.415       .  A
C248        C249   1.402       .  A
C248        H257   1.084       .  S
C249        C250   1.413       .  A
C249        S253   1.805       .  S
C250        C911   1.402       .  A
C251        C252   1.398       .  A
C251        C910   1.402   1_545  A
C251        H258   1.084       .  S
C252        C907   1.415       .  A
C252        S254   1.805       .  S
S253        H256   1.407       .  S
S254        H255   1.402       .  S
C259        C264   1.413       .  A
C259        C920   1.402       .  A
C260        C261   1.398       .  A
C260        C919   1.402   1_545  A
C260        H269   1.084       .  S
C261        C262   1.412       .  A
C261        S265   1.804       .  S
C262        C923   1.403   1_545  A
C263        C264   1.401       .  A
C263        C922   1.403       .  A
C263        H270   1.084       .  S
C264        S266   1.804       .  S
S265        H268   1.405       .  S
S266        H267   1.406       .  S
C271        C272   1.404   1_565  A
C271        C936   1.414       .  A
C272        C273   1.401       .  A
C272        H281   1.084       .  S
C273        C274   1.413       .  A
C273        S277   1.805       .  S
C274        C935   1.401   1_545  A
C275        C276   1.397       .  A
C275        C934   1.401       .  A
C275        H282   1.084       .  S
C276        C931   1.414       .  A
C276        S278   1.806       .  S
S277        H280   1.407       .  S
S278        H279   1.402       .  S
C283        C284   1.407       .  A
C283       C1608   1.419   1_455  A
C284        C285   1.403       .  A
C284        H293   1.084       .  S
C285       C1606   1.419       .  A
C285        S289   1.800       .  S
C286        C287   1.404       .  A
C286       C1605   1.419       .  A
C287        C288   1.394       .  A
C287        H294   1.084       .  S
C288       C1603   1.419       .  A
C288        S290   1.801       .  S
S289        H292   1.408   1_455  S
S290        H291   1.408       .  S
C295        C296   1.399   1_655  A
C295       C1620   1.410       .  A
C296        C297   1.395       .  A
C296        H305   1.085       .  S
C297        C298   1.415       .  A
C297        S301   1.808       .  S
C298       C1619   1.402   1_455  A
C299        C300   1.398       .  A
C299       C1618   1.402       .  A
C299        H306   1.085       .  S
C300       C1615   1.410       .  A
C300        S302   1.801       .  S
S301        H304   1.398       .  S
S302        H303   1.406       .  S
C307        C308   1.408   1_655  A
C307       C1632   1.422       .  A
C308        C309   1.404       .  A
C308        H317   1.083       .  S
C309       C1630   1.421       .  A
C309        S313   1.802       .  S
C310        C311   1.405       .  A
C310       C1629   1.421       .  A
C311        C312   1.394       .  A
C311        H318   1.083       .  S
C312       C1627   1.422       .  A
C312        S314   1.803       .  S
S313        H316   1.408       .  S
S314        H315   1.407       .  S
C319        C320   1.406       .  A
C319       C1644   1.420       .  A
C320        C321   1.398       .  A
C320        H329   1.084       .  S
C321        C322   1.417       .  A
C321        S325   1.802       .  S
C322       C1643   1.405       .  A
C323        C324   1.400       .  A
C323       C1642   1.405   1_455  A
C323        H330   1.084       .  S
C324       C1639   1.420   1_455  A
C324        S326   1.801       .  S
S325        H328   1.408       .  S
S326        H327   1.408   1_455  S
O331       Zr343   2.441       .  S
O331        C333   1.288       .  A
O332      Zr1689   2.421   1_545  S
O332        C333   1.286       .  A
C333        C604   1.471       .  S
O334       Zr346   2.444       .  S
O334        C336   1.290       .  A
O335      Zr1030   2.419   1_545  S
O335        C336   1.284       .  A
C336        C616   1.491       .  S
O337       Zr346   2.443       .  S
O337        C339   1.288       .  A
O338       Zr369   2.424   1_545  S
O338       C1659   1.288       .  A
C339       O1658   1.288       .  A
C339        C652   1.489       .  S
O340       Zr343   2.449       .  S
O340        C342   1.290       .  A
O341       Zr370   2.421       .  S
O341       C1002   1.286       .  A
C342       O1001   1.286       .  A
C342        C565   1.481       .  S
Zr343       O344   2.434       .  S
Zr343      O1005   2.435   1_545  S
Zr343       O349   2.371       .  S
Zr343       O350   2.368       .  S
Zr343      O1033   2.370   1_545  S
Zr343      O1035   2.375   1_545  S
O344        H387   0.990       .  S
O345      Zr1003   2.435       .  S
O345        H386   0.990       .  S
O345        H390   0.990       .  S
Zr346       O347   2.436       .  S
Zr346      O1668   2.435       .  S
Zr346       O350   2.368       .  S
Zr346       O349   2.371       .  S
Zr346      O1694   2.370       .  S
Zr346      O1696   2.371       .  S
O347        H388   0.990       .  S
O347        H391   0.990       .  S
O348      Zr1666   2.435       .  S
O348        H381   0.990       .  S
O349      Zr1689   2.382   1_545  S
O350      Zr1030   2.384   1_545  S
O350        H377   0.966       .  S
O351       Zr363   2.426       .  S
O351        C353   1.284       .  A
O352       Zr370   2.425       .  S
O352       C1673   1.286       .  A
C353       O1672   1.286       .  A
C353        C625   1.464       .  S
O354       Zr366   2.442       .  S
O354        C356   1.288       .  A
O355       Zr369   2.426   1_455  S
O355       C1016   1.287       .  A
C356       O1015   1.287       .  A
C356        C589   1.471       .  S
O357       Zr366   2.443       .  S
O357        C359   1.288       .  A
O358      Zr1690   2.425       .  S
O358        C359   1.287       .  A
C359        C580   1.475       .  S
O360       Zr363   2.427   1_455  S
O360        C362   1.283   1_455  A
O361      Zr1029   2.438       .  S
O361        C362   1.289       .  A
C362        C637   1.497       .  S
Zr363       O364   2.436   1_655  S
Zr363      O1685   2.434       .  S
Zr363       O371   2.368   1_655  S
Zr363       O372   2.368   1_655  S
Zr363      O1695   2.366       .  S
Zr363      O1693   2.370       .  S
O364        H384   0.990       .  S
O364        H389   0.990       .  S
O365      Zr1683   2.434       .  S
O365        H385   0.990       .  S
Zr366       O367   2.434       .  S
Zr366      O1028   2.435       .  S
Zr366       O372   2.373       .  S
Zr366       O371   2.373       .  S
Zr366      O1036   2.370       .  S
Zr366      O1034   2.371       .  S
O367        H383   0.990       .  S
O368      Zr1026   2.435   1_545  S
O368        H382   0.990       .  S
O368        H392   0.990       .  S
Zr369      O1652   2.421   1_565  S
Zr369      O1021   2.438       .  S
Zr369      O1669   2.382   1_565  S
Zr369      O1032   2.379   1_655  S
Zr369       O374   2.387   1_665  S
Zr369      O2355   2.383       .  S
Zr370       O995   2.419       .  S
Zr370      O1678   2.425       .  S
Zr370      O1010   2.384       .  S
Zr370      O1691   2.383       .  S
Zr370       O373   2.378       .  S
Zr370      O2356   2.384       .  S
O371      Zr1690   2.383       .  S
O371        H379   0.966       .  S
O372      Zr1029   2.379   1_455  S
O373      Zr1003   2.370       .  S
O373      Zr1683   2.370       .  S
O374      Zr1666   2.370       .  S
O374      Zr1026   2.371   1_545  S
O374        H378   0.966       .  S
O375      Zr1003   2.375       .  S
O375      Zr1683   2.366       .  S
O375      Zr2349   2.383       .  S
O375        H380   0.966       .  S
O376      Zr1666   2.371       .  S
O376      Zr1026   2.370   1_545  S
O376      Zr2350   2.384   1_545  S
O393       Zr405   2.452       .  S
O393        C395   1.291       .  A
O394       Zr431   2.414   1_655  S
O394       C1715   1.283       .  A
C395       O1714   1.283       .  A
C395        C649   1.491       .  S
O396       Zr408   2.449       .  S
O396        C398   1.290       .  A
O397       Zr432   2.415       .  S
O397        C398   1.285       .  A
C398        C517   1.477       .  S
O399       Zr408   2.446       .  S
O399        C401   1.288       .  A
O400      Zr1751   2.416       .  S
O400        C401   1.284       .  A
C401        C529   1.465       .  S
O402       Zr405   2.445       .  S
O402        C404   1.291       .  A
O403       Zr432   2.419       .  S
O403        C404   1.284       .  A
C404        C640   1.497       .  S
Zr405       O406   2.434       .  S
Zr405      O1727   2.435       .  S
Zr405       O411   2.370       .  S
Zr405       O412   2.372       .  S
Zr405      O1755   2.370       .  S
Zr405      O1757   2.368       .  S
O406        H449   0.990       .  S
O407      Zr1725   2.435       .  S
O407        H448   0.990       .  S
O407        H452   0.990       .  S
Zr408       O409   2.436       .  S
Zr408       O412   2.371       .  S
Zr408       O411   2.371       .  S
O409        H450   0.990       .  S
O409        H453   0.990       .  S
O410        H443   0.990       .  S
O411      Zr1751   2.382       .  S
O412       Zr432   2.385       .  S
O412        H439   0.966       .  S
O413       Zr425   2.447       .  S
O414      Zr1752   2.420       .  S
C415        C541   1.473       .  S
O416       Zr428   2.428       .  S
O416        C418   1.284       .  A
O417        C418   1.288       .  A
C418        C613   1.490       .  S
O419       Zr428   2.423       .  S
O419        C421   1.284       .  A
O420       C1741   1.287       .  A
C421       O1740   1.287       .  A
C421        C628   1.464       .  S
O422       Zr425   2.442       .  S
O423       Zr431   2.418       .  S
C424        C553   1.464       .  S
Zr425       O427   2.434       .  S
Zr425       O437   2.370       .  S
Zr425       O435   2.369       .  S
O426        H446   0.990       .  S
O426        H451   0.990       .  S
O427        H447   0.990       .  S
Zr428       O429   2.433       .  S
Zr428      O1750   2.435   1_455  S
Zr428       O434   2.371       .  S
Zr428       O433   2.373       .  S
Zr428      O1758   2.369   1_455  S
Zr428      O1756   2.365   1_455  S
O429        H445   0.990       .  S
O430      Zr1748   2.435       .  S
O430        H444   0.990       .  S
O430        H454   0.990       .  S
Zr431      O1720   2.416   1_455  S
Zr431      O1731   2.382   1_455  S
Zr431      O1426   2.380   1_455  S
Zr431       O437   2.385       .  S
Zr432      O1734   2.420       .  S
Zr432      O1423   2.381       .  S
Zr432      O1755   2.381       .  S
O433      Zr1422   2.381       .  S
O433        H441   0.965       .  S
O435      Zr1725   2.370       .  S
O435      Zr1752   2.381       .  S
O436      Zr1748   2.365       .  S
O436      Zr1421   2.380   1_556  S
O436        H440   0.966       .  S
O437      Zr1725   2.368       .  S
O437        H442   0.965       .  S
O438      Zr1748   2.369       .  S
O455       Zr467   2.444       .  S
O455        C457   1.287       .  A
O456      Zr1153   2.418   1_545  S
O456        C457   1.285       .  A
C457        C532   1.466       .  S
O458       Zr470   2.444       .  S
O458       C1120   1.288       .  A
O459       Zr494   2.423   1_565  S
O459        C460   1.286   1_565  A
C460       O1118   1.288       .  A
C460        C592   1.471       .  S
O461       Zr470   2.439       .  S
O461       C1123   1.288       .  A
O462       Zr493   2.424       .  S
O462       C1123   1.286       .  A
C463       O1121   1.288   1_545  A
C463       O1122   1.286       .  A
C463        C601   1.472   1_545  S
O464       Zr467   2.438       .  S
O464        C466   1.287       .  A
O465       Zr494   2.427       .  S
O465        C466   1.286       .  A
C466        C556   1.467       .  S
Zr467       O468   2.434       .  S
Zr467       O473   2.372       .  S
Zr467       O474   2.370       .  S
O468        H511   0.990       .  S
O469        H510   0.990       .  S
O469        H514   0.990       .  S
Zr470      O1131   2.435       .  S
Zr470       O472   2.434       .  S
Zr470      O1134   2.370       .  S
Zr470      O1133   2.372       .  S
Zr470       O498   2.373       .  S
Zr470       O500   2.370       .  S
O471      Zr1130   2.435       .  S
O471        H512   0.990       .  S
O471        H515   0.990       .  S
O472        H505   0.990       .  S
O473      Zr1130   2.373       .  S
O473      Zr1153   2.380   1_545  S
O474      Zr1130   2.370       .  S
O474       Zr494   2.385       .  S
O474        H501   0.965       .  S
O475       Zr487   2.439   1_545  S
O475       C1137   1.287       .  A
O476       C1137   1.287   1_565  A
C477       O1135   1.287       .  A
C477       O1136   1.287       .  A
C477        C577   1.476       .  S
O478       Zr490   2.447       .  S
O479       Zr493   2.419       .  S
C480        C520   1.479   1_554  S
O481       Zr490   2.445       .  S
O482      Zr1154   2.416       .  S
C483        C544   1.470       .  S
O484       Zr487   2.440       .  S
O484       C1146   1.288       .  A
O485        C486   1.287       .  A
C486       O1144   1.288       .  A
C486        C568   1.479       .  S
Zr487      O1148   2.435       .  S
Zr487       O489   2.434   1_565  S
Zr487      O1155   2.372       .  S
Zr487      O1156   2.371       .  S
Zr487       O499   2.370   1_565  S
Zr487       O497   2.373   1_565  S
O488      Zr1147   2.435       .  S
O488        H508   0.990       .  S
O488        H513   0.990       .  S
O489        H509   0.990       .  S
Zr490       O492   2.434       .  S
Zr490       O500   2.371       .  S
Zr490       O498   2.368       .  S
O491        H507   0.990       .  S
O492        H506   0.990       .  S
O492        H516   0.990       .  S
Zr493      O1116   2.418       .  S
Zr493      O1133   2.380       .  S
Zr493       O498   2.383       .  S
Zr493       O829   2.383       .  S
Zr494      O1142   2.416   1_545  S
Zr494       O825   2.384   1_545  S
Zr494      O1160   2.382   1_545  S
O495      Zr1147   2.372       .  S
O495       Zr824   2.384   1_556  S
O495        H503   0.966       .  S
O496      Zr1147   2.371       .  S
O498        H502   0.965       .  S
O499       Zr823   2.383   1_546  S
O499        H504   0.966       .  S
O500      Zr1154   2.382       .  S
C517        C518   1.404       .  A
C518        C519   1.399       .  A
C518        H527   1.084       .  S
C519        S523   1.804       .  S
C520        C521   1.404       .  A
C521        C522   1.399       .  A
C521        H528   1.084       .  S
C522        S524   1.803       .  S
S523        H526   1.403       .  S
S524        H525   1.407       .  S
C529        C534   1.412       .  A
C530        C531   1.398       .  A
C530        H539   1.084       .  S
C531        S535   1.805       .  S
C532        C533   1.402       .  A
C533        C534   1.400       .  A
C533        H540   1.084       .  S
C534        S536   1.805       .  S
S535        H538   1.403       .  S
S536        H537   1.404       .  S
C541        C546   1.413   1_554  A
C542        C543   1.401       .  A
C542        H551   1.084       .  S
C543        S547   1.804       .  S
C544        C545   1.401   1_554  A
C545        C546   1.397       .  A
C545        H552   1.084       .  S
C546        S548   1.800       .  S
S547        H550   1.407       .  S
S548        H549   1.403       .  S
C553        C554   1.399   1_554  A
C554        C555   1.396       .  A
C554        H563   1.084       .  S
C555        S559   1.801       .  S
C556        C557   1.402       .  A
C557        C558   1.400       .  A
C557        H564   1.084       .  S
C558        S560   1.807       .  S
S559        H562   1.403       .  S
S560        H561   1.401       .  S
C565       C1226   1.405   1_545  A
C565        C570   1.413       .  A
C566       C1225   1.405       .  A
C566        C567   1.400       .  A
C566        H575   1.081       .  S
C567        C568   1.413       .  A
C567        S571   1.804       .  S
C568       C1229   1.404       .  A
C569       C1228   1.404       .  A
C569        C570   1.397       .  A
C569        H576   1.084       .  S
C570        S572   1.804       .  S
S571        H574   1.407       .  S
S572        H573   1.407       .  S
C577        C578   1.405       .  A
C577       C1242   1.415       .  A
C578        C579   1.402       .  A
C578        H587   1.084       .  S
C579        C580   1.413       .  A
C579        S583   1.805       .  S
C580       C1241   1.402       .  A
C581       C1240   1.402   1_545  A
C581        C582   1.398       .  A
C581        H588   1.084       .  S
C582       C1237   1.415       .  A
C582        S584   1.805       .  S
S583        H586   1.407       .  S
S584        H585   1.402       .  S
C589       C1250   1.402       .  A
C589        C594   1.413       .  A
C590       C1249   1.402   1_545  A
C590        C591   1.398       .  A
C590        H599   1.084       .  S
C591        C592   1.412       .  A
C591        S595   1.804       .  S
C592       C1253   1.403   1_545  A
C593       C1252   1.403       .  A
C593        C594   1.401       .  A
C593        H600   1.084       .  S
C594        S596   1.804       .  S
S595        H598   1.405       .  S
S596        H597   1.406       .  S
C601        C602   1.404   1_565  A
C601       C1266   1.414       .  A
C602        C603   1.401       .  A
C602        H611   1.084       .  S
C603        C604   1.413       .  A
C603        S607   1.805       .  S
C604       C1265   1.401   1_545  A
C605       C1264   1.401       .  A
C605        C606   1.397       .  A
C605        H612   1.084       .  S
C606       C1261   1.414       .  A
C606        S608   1.806       .  S
S607        H610   1.407       .  S
S608        H609   1.402       .  S
C613        C614   1.407       .  A
C613       C1938   1.419   1_455  A
C614        C615   1.403       .  A
C614        H623   1.084       .  S
C615       C1936   1.419       .  A
C615        S619   1.800       .  S
C616       C1935   1.419       .  A
C616        C617   1.404       .  A
C617        C618   1.394       .  A
C617        H624   1.084       .  S
C618       C1933   1.419       .  A
C618        S620   1.801       .  S
S619        H622   1.408   1_455  S
S620        H621   1.408       .  S
C625        C626   1.399   1_655  A
C625       C1950   1.410       .  A
C626        C627   1.395       .  A
C626        H635   1.085       .  S
C627        C628   1.415       .  A
C627        S631   1.808       .  S
C628       C1949   1.402   1_455  A
C629       C1948   1.402       .  A
C629        C630   1.398       .  A
C629        H636   1.085       .  S
C630       C1945   1.410       .  A
C630        S632   1.801       .  S
S631        H634   1.398       .  S
S632        H633   1.406       .  S
C637        C638   1.408   1_655  A
C637       C1962   1.422       .  A
C638        C639   1.404       .  A
C638        H647   1.083       .  S
C639       C1960   1.421       .  A
C639        S643   1.802       .  S
C640       C1959   1.421       .  A
C640        C641   1.405       .  A
C641        C642   1.394       .  A
C641        H648   1.083       .  S
C642       C1957   1.422       .  A
C642        S644   1.803       .  S
S643        H646   1.408       .  S
S644        H645   1.407       .  S
C649        C650   1.406       .  A
C649       C1974   1.420       .  A
C650        C651   1.398       .  A
C650        H659   1.084       .  S
C651        C652   1.417       .  A
C651        S655   1.802       .  S
C652       C1973   1.405       .  A
C653       C1972   1.405   1_455  A
C653        C654   1.400       .  A
C653        H660   1.084       .  S
C654       C1969   1.420   1_455  A
C654        S656   1.801       .  S
S655        H658   1.408       .  S
S656        H657   1.408   1_455  S
O661       Zr673   2.442       .  S
O661        C663   1.288       .  A
O662      Zr2019   2.421       .  S
O662        C663   1.286       .  A
C663        C934   1.471       .  S
O664       Zr676   2.444       .  S
O664        C666   1.290       .  A
O665        C666   1.284       .  A
C666        C946   1.491       .  S
O667       Zr676   2.443       .  S
O667        C669   1.288       .  A
O668       Zr699   2.424       .  S
O668       C1989   1.288       .  A
C669       O1988   1.288       .  A
C669        C982   1.489       .  S
O670       Zr673   2.449       .  S
O670        C672   1.290       .  A
O671       Zr700   2.421   1_545  S
C672        C895   1.482       .  S
Zr673       O674   2.434       .  S
Zr673       O679   2.371       .  S
Zr673       O680   2.368       .  S
O674        H717   0.990       .  S
O675        H716   0.990       .  S
O675        H720   0.990       .  S
Zr676       O677   2.436       .  S
Zr676      O1998   2.435       .  S
Zr676       O680   2.368       .  S
Zr676       O679   2.371       .  S
Zr676      O2024   2.370       .  S
Zr676      O2026   2.371       .  S
O677        H718   0.990       .  S
O677        H721   0.990       .  S
O678      Zr1996   2.435       .  S
O678        H711   0.990       .  S
O679      Zr2019   2.382       .  S
O680        H707   0.966       .  S
O681       Zr693   2.426       .  S
O681        C683   1.284       .  A
O682       Zr700   2.425       .  S
O682       C2003   1.286       .  A
C683       O2002   1.286       .  A
C683        C955   1.464       .  S
O684       Zr696   2.442       .  S
O684        C686   1.288       .  A
O685       Zr699   2.426   1_455  S
C686        C919   1.471       .  S
O687       Zr696   2.443       .  S
O687        C689   1.288       .  A
O688      Zr2020   2.425       .  S
O688        C689   1.287       .  A
C689        C910   1.475       .  S
O690       Zr693   2.427   1_455  S
O690        C692   1.283   1_455  A
O691        C692   1.289       .  A
C692        C967   1.497       .  S
Zr693       O694   2.436   1_655  S
Zr693      O2015   2.434       .  S
Zr693       O701   2.368   1_655  S
Zr693       O702   2.368   1_655  S
Zr693      O2025   2.366       .  S
Zr693      O2023   2.370       .  S
O694        H714   0.990       .  S
O694        H719   0.990       .  S
O695      Zr2013   2.434       .  S
O695        H715   0.990       .  S
Zr696       O697   2.434       .  S
Zr696       O702   2.373       .  S
Zr696       O701   2.373       .  S
O697        H713   0.990       .  S
O698        H712   0.990       .  S
O698        H722   0.990       .  S
Zr699      O1982   2.421       .  S
Zr699      O1999   2.382       .  S
Zr699       O704   2.387   1_655  S
Zr699      O1365   2.383       .  S
Zr700      O2008   2.425       .  S
Zr700      O2021   2.383       .  S
Zr700       O703   2.378       .  S
Zr700      O1366   2.384   1_565  S
O701      Zr2020   2.383       .  S
O701        H709   0.966       .  S
O703      Zr2013   2.370       .  S
O704      Zr1996   2.370       .  S
O704        H708   0.966       .  S
O705      Zr2013   2.366       .  S
O705      Zr1359   2.383       .  S
O705        H710   0.966       .  S
O706      Zr1996   2.371       .  S
O706      Zr1360   2.384       .  S
O723       Zr735   2.452       .  S
O723        C725   1.291       .  A
O724       Zr761   2.414   1_655  S
O724       C2045   1.283       .  A
C725       O2044   1.283       .  A
C725        C979   1.491       .  S
O726       Zr738   2.449       .  S
O726        C728   1.290       .  A
O727       Zr762   2.416       .  S
O727        C728   1.285       .  A
C728        C847   1.477       .  S
O729       Zr738   2.446   1_554  S
O729        C731   1.288       .  A
O730      Zr2081   2.416       .  S
O730        C731   1.284       .  A
C731        C859   1.465       .  S
O732       Zr735   2.445       .  S
O732        C734   1.291       .  A
O733       Zr762   2.419   1_554  S
O733        C734   1.284       .  A
C734        C970   1.497       .  S
Zr735       O736   2.434       .  S
Zr735      O2057   2.435       .  S
Zr735       O741   2.370       .  S
Zr735       O742   2.372       .  S
Zr735      O2085   2.370       .  S
Zr735      O2087   2.368       .  S
O736        H779   0.990       .  S
O737      Zr2055   2.435       .  S
O737        H778   0.990       .  S
O737        H782   0.990       .  S
Zr738       O739   2.436   1_556  S
Zr738      O1070   2.435       .  S
Zr738       O742   2.371   1_556  S
Zr738       O741   2.371   1_556  S
Zr738      O1096   2.375       .  S
Zr738      O1098   2.372       .  S
O739        H780   0.990       .  S
O739        H783   0.990       .  S
O740      Zr1068   2.435       .  S
O740        H773   0.990       .  S
O741      Zr2081   2.382       .  S
O742       Zr762   2.385   1_554  S
O742        H769   0.966       .  S
O743       Zr755   2.447       .  S
O743       C1075   1.288       .  A
O744      Zr2082   2.420       .  S
O744       C1075   1.286   1_556  A
C745       O1073   1.288       .  A
C745       O1074   1.286       .  A
C745        C871   1.473       .  S
O746       Zr758   2.428       .  S
O746        C748   1.284       .  A
O747      Zr1091   2.434       .  S
O747        C748   1.288       .  A
C748        C943   1.490       .  S
O749       Zr758   2.423       .  S
O749        C751   1.284       .  A
O750      Zr1092   2.428       .  S
O750       C2071   1.287       .  A
C751       O2070   1.287       .  A
C751        C958   1.464       .  S
O752       Zr755   2.442       .  S
O752       C1084   1.287       .  A
O753       Zr761   2.418       .  S
O753       C1084   1.285       .  A
C754       O1082   1.287       .  A
C754       O1083   1.285       .  A
C754        C883   1.464       .  S
Zr755      O1086   2.436   1_554  S
Zr755       O757   2.434       .  S
Zr755      O1093   2.371   1_554  S
Zr755      O1094   2.376   1_554  S
Zr755       O767   2.370       .  S
Zr755       O765   2.369       .  S
O756      Zr1085   2.436       .  S
O756        H776   0.990       .  S
O756        H781   0.990       .  S
O757        H777   0.990       .  S
Zr758       O759   2.433       .  S
Zr758      O2080   2.435   1_455  S
Zr758       O764   2.371       .  S
Zr758       O763   2.373       .  S
Zr758      O2088   2.369   1_455  S
Zr758      O2086   2.365   1_455  S
O759        H775   0.990       .  S
O760      Zr2078   2.435       .  S
O760        H774   0.990       .  S
O760        H784   0.990       .  S
Zr761      O2050   2.416   1_455  S
Zr761      O1077   2.434   1_554  S
Zr761      O2061   2.382   1_455  S
Zr761      O1094   2.378   1_554  S
Zr761      O2416   2.380   1_454  S
Zr761       O767   2.385       .  S
Zr762      O2064   2.420       .  S
Zr762      O1080   2.428       .  S
Zr762      O2413   2.381       .  S
Zr762      O2085   2.381   1_556  S
Zr762      O1098   2.377       .  S
O763      Zr1085   2.371       .  S
O763      Zr2412   2.381       .  S
O763        H771   0.965       .  S
O764      Zr1085   2.376       .  S
O764      Zr1091   2.378       .  S
O765      Zr2055   2.370       .  S
O765      Zr2082   2.381   1_554  S
O766      Zr1068   2.375       .  S
O766      Zr2078   2.365       .  S
O766      Zr2411   2.380       .  S
O766        H770   0.966       .  S
O767      Zr2055   2.368       .  S
O767        H772   0.965       .  S
O768      Zr1068   2.372       .  S
O768      Zr2078   2.369       .  S
O768      Zr1092   2.377       .  S
O785       Zr797   2.444       .  S
O785        C787   1.287       .  A
O786        C787   1.285       .  A
C787        C862   1.466       .  S
O788       Zr800   2.444       .  S
O789       Zr824   2.423       .  S
O789        C790   1.286       .  A
C790        C922   1.471       .  S
O791       Zr800   2.439   1_565  S
O792       Zr823   2.424   1_545  S
C793        C931   1.472       .  S
O794       Zr797   2.438       .  S
O794        C796   1.287       .  A
O795       Zr824   2.428   1_556  S
O795        C796   1.286   1_556  A
C796        C886   1.467       .  S
Zr797       O798   2.434       .  S
Zr797      O1129   2.435   1_554  S
Zr797       O803   2.372       .  S
Zr797       O804   2.370       .  S
Zr797      O1157   2.375   1_554  S
Zr797      O1159   2.369   1_554  S
O798        H841   0.990       .  S
O799      Zr1127   2.435       .  S
O799        H840   0.990       .  S
O799        H844   0.990       .  S
Zr800       O802   2.434   1_545  S
Zr800       O828   2.373   1_545  S
Zr800       O830   2.370   1_545  S
O801        H842   0.990       .  S
O801        H845   0.990       .  S
O802        H835   0.990       .  S
O804       Zr824   2.385       .  S
O804        H831   0.965       .  S
O805       Zr817   2.438       .  S
O806      Zr1154   2.430       .  S
C807        C907   1.476       .  S
O808       Zr820   2.447   1_556  S
O808       C1140   1.289   1_556  A
O809       Zr823   2.419       .  S
O809       C1140   1.286       .  A
C810       O1138   1.289       .  A
C810       O1139   1.286       .  A
C810        C850   1.479       .  S
O811       Zr820   2.445       .  S
O811       C1143   1.288       .  A
O812       C1143   1.285       .  A
C813       O1141   1.288       .  A
C813       O1142   1.285       .  A
C813        C874   1.470       .  S
O814       Zr817   2.436       .  S
O815      Zr1153   2.426       .  S
O815        C816   1.287       .  A
C816        C898   1.479   1_565  S
Zr817       O819   2.434       .  S
Zr817       O829   2.371       .  S
Zr817       O827   2.373       .  S
O818        H838   0.990       .  S
O818        H843   0.990       .  S
O819        H839   0.990       .  S
Zr820      O1151   2.434   1_554  S
Zr820       O822   2.434       .  S
Zr820      O1156   2.372   1_554  S
Zr820      O1155   2.372   1_554  S
Zr820       O830   2.371       .  S
Zr820       O828   2.368       .  S
O821      Zr1150   2.434       .  S
O821        H837   0.990       .  S
O822        H836   0.990       .  S
O822        H846   0.990       .  S
Zr823      O1145   2.426   1_554  S
Zr823      O1156   2.380   1_554  S
Zr823       O828   2.383       .  S
Zr824      O1136   2.430   1_554  S
Zr824      O1157   2.381   1_554  S
O825      Zr1150   2.372       .  S
O825        H833   0.966       .  S
O826      Zr1150   2.372       .  S
O826      Zr1153   2.380       .  S
O827      Zr1127   2.375       .  S
O827      Zr1154   2.381       .  S
O828        H832   0.965       .  S
O829      Zr1127   2.369       .  S
O829        H834   0.966       .  S
C847        C848   1.404   1_556  A
C847       C1182   1.412       .  A
C848        C849   1.399       .  A
C848        H857   1.084       .  S
C849       C1180   1.415   1_554  A
C849        S853   1.804       .  S
C850       C1179   1.415       .  A
C850        C851   1.404       .  A
C851        C852   1.399       .  A
C851        H858   1.084       .  S
C852       C1177   1.412       .  A
C852        S854   1.803       .  S
S853        H856   1.403       .  S
S854        H855   1.407       .  S
C859       C1190   1.401   1_554  A
C859        C864   1.412       .  A
C860       C1189   1.401       .  A
C860        C861   1.398       .  A
C860        H869   1.084       .  S
C861       C1192   1.411       .  A
C861        S865   1.805       .  S
C862       C1191   1.411   1_554  A
C862        C863   1.402       .  A
C863        C864   1.400       .  A
C863        H870   1.084       .  S
C864        S866   1.805       .  S
S865        H868   1.403       .  S
S866        H867   1.404       .  S
C871       C1202   1.403       .  A
C871        C876   1.412       .  A
C872       C1201   1.403       .  A
C872        C873   1.401       .  A
C872        H881   1.084       .  S
C873       C1204   1.412       .  A
C873        S877   1.804       .  S
C874       C1203   1.412       .  A
C874        C875   1.401       .  A
C875        C876   1.397       .  A
C875        H882   1.084       .  S
C876        S878   1.800       .  S
S877        H880   1.407       .  S
S878        H879   1.403       .  S
C883        C884   1.399       .  A
C883       C1218   1.413       .  A
C884        C885   1.396       .  A
C884        H893   1.084       .  S
C885       C1216   1.411       .  A
C885        S889   1.801       .  S
C886       C1215   1.411   1_554  A
C886        C887   1.402       .  A
C887        C888   1.400       .  A
C887        H894   1.084       .  S
C888       C1213   1.413       .  A
C888        S890   1.807       .  S
S889        H892   1.403       .  S
S890        H891   1.401       .  S
C895        C900   1.414       .  A
C896        C897   1.400       .  A
C896        H905   1.081       .  S
C897        C898   1.413   1_565  A
C897        S901   1.804       .  S
C899        C900   1.398       .  A
C899        H906   1.084       .  S
C900        S902   1.803       .  S
S901        H904   1.407       .  S
S902        H903   1.408       .  S
C907        C908   1.405   1_545  A
C908        C909   1.402       .  A
C908        H917   1.084       .  S
C909        C910   1.413       .  A
C909        S913   1.805       .  S
C911        C912   1.398       .  A
C911        H918   1.084       .  S
C912        S914   1.805       .  S
S913        H916   1.407       .  S
S914        H915   1.402       .  S
C919        C924   1.413       .  A
C920        C921   1.398       .  A
C920        H929   1.084       .  S
C921        C922   1.412       .  A
C921        S925   1.804       .  S
C923        C924   1.401       .  A
C923        H930   1.084       .  S
C924        S926   1.804       .  S
S925        H928   1.405       .  S
S926        H927   1.406       .  S
C931        C932   1.404       .  A
C932        C933   1.401       .  A
C932        H941   1.084       .  S
C933        C934   1.413       .  A
C933        S937   1.805       .  S
C935        C936   1.397       .  A
C935        H942   1.084       .  S
C936        S938   1.806       .  S
S937        H940   1.407       .  S
S938        H939   1.402       .  S
C943        C944   1.407       .  A
C943       C2268   1.419   1_455  A
C944        C945   1.403       .  A
C944        H953   1.084       .  S
C945       C2266   1.419       .  A
C945        S949   1.800       .  S
C946       C2265   1.419       .  A
C946        C947   1.404       .  A
C947        C948   1.394       .  A
C947        H954   1.084       .  S
C948       C2263   1.419       .  A
C948        S950   1.801       .  S
S949        H952   1.408   1_455  S
S950        H951   1.408       .  S
C955        C956   1.399   1_655  A
C955       C2280   1.410       .  A
C956        C957   1.395       .  A
C956        H965   1.085       .  S
C957        C958   1.415       .  A
C957        S961   1.808       .  S
C958       C2279   1.402   1_455  A
C959       C2278   1.402       .  A
C959        C960   1.398       .  A
C959        H966   1.085       .  S
C960       C2275   1.410       .  A
C960        S962   1.801       .  S
S961        H964   1.398       .  S
S962        H963   1.406       .  S
C967        C968   1.408   1_655  A
C967       C2292   1.422       .  A
C968        C969   1.404       .  A
C968        H977   1.083       .  S
C969       C2290   1.421       .  A
C969        S973   1.802       .  S
C970       C2289   1.421       .  A
C970        C971   1.405       .  A
C971        C972   1.394       .  A
C971        H978   1.083       .  S
C972       C2287   1.422       .  A
C972        S974   1.803       .  S
S973        H976   1.408       .  S
S974        H975   1.407       .  S
C979        C980   1.406       .  A
C979       C2304   1.420       .  A
C980        C981   1.398       .  A
C980        H989   1.084       .  S
C981        C982   1.417       .  A
C981        S985   1.802       .  S
C982       C2303   1.405       .  A
C983       C2302   1.405   1_455  A
C983        C984   1.400       .  A
C983        H990   1.084       .  S
C984       C2299   1.420   1_455  A
C984        S986   1.801       .  S
S985        H988   1.408       .  S
S986        H987   1.408   1_455  S
O991      Zr1003   2.442       .  S
O991        C993   1.288       .  A
O992      Zr2349   2.421       .  S
O992        C993   1.286       .  A
C993       C1264   1.471       .  S
O994      Zr1006   2.444       .  S
O994        C996   1.290       .  A
O995        C996   1.284       .  A
C996       C1276   1.491       .  S
O997      Zr1006   2.443       .  S
O997        C999   1.288       .  A
O998      Zr1029   2.424       .  S
O998       C2319   1.288       .  A
C999       O2318   1.288       .  A
C999       C1312   1.489       .  S
O1000     Zr1003   2.449       .  S
O1000      C1002   1.290       .  A
O1001     Zr1030   2.420   1_545  S
C1002      C1225   1.482       .  S
Zr1003     O1004   2.434       .  S
Zr1003     O1009   2.371       .  S
Zr1003     O1010   2.368       .  S
O1004      H1047   0.990       .  S
O1005      H1046   0.990       .  S
O1005      H1050   0.990       .  S
Zr1006     O1007   2.436       .  S
Zr1006     O2328   2.435       .  S
Zr1006     O1010   2.368       .  S
Zr1006     O1009   2.371       .  S
Zr1006     O2354   2.370       .  S
Zr1006     O2356   2.371       .  S
O1007      H1048   0.990       .  S
O1007      H1051   0.990       .  S
O1008     Zr2326   2.435       .  S
O1008      H1041   0.990       .  S
O1009     Zr2349   2.382       .  S
O1010      H1037   0.966       .  S
O1011     Zr1023   2.426       .  S
O1011      C1013   1.284       .  A
O1012     Zr1030   2.425       .  S
O1012      C2333   1.286       .  A
C1013      O2332   1.286       .  A
C1013      C1285   1.464       .  S
O1014     Zr1026   2.442       .  S
O1014      C1016   1.288       .  A
O1015     Zr1029   2.426   1_455  S
C1016      C1249   1.471       .  S
O1017     Zr1026   2.443       .  S
O1017      C1019   1.288       .  A
O1018     Zr2350   2.425       .  S
O1018      C1019   1.287       .  A
C1019      C1240   1.475       .  S
O1020     Zr1023   2.427   1_455  S
O1020      C1022   1.283   1_455  A
O1021      C1022   1.289       .  A
C1022      C1297   1.497       .  S
Zr1023     O1024   2.436   1_655  S
Zr1023     O2345   2.434       .  S
Zr1023     O1031   2.368   1_655  S
Zr1023     O1032   2.368   1_655  S
Zr1023     O2355   2.366       .  S
Zr1023     O2353   2.370       .  S
O1024      H1044   0.990       .  S
O1024      H1049   0.990       .  S
O1025     Zr2343   2.434       .  S
O1025      H1045   0.990       .  S
Zr1026     O1027   2.434       .  S
Zr1026     O1032   2.373       .  S
Zr1026     O1031   2.373       .  S
O1027      H1043   0.990       .  S
O1028      H1042   0.990       .  S
O1028      H1052   0.990       .  S
Zr1029     O2312   2.421       .  S
Zr1029     O2329   2.382       .  S
Zr1029     O1034   2.387   1_655  S
Zr1029     O1695   2.383       .  S
Zr1030     O2338   2.425       .  S
Zr1030     O2351   2.383       .  S
Zr1030     O1033   2.378       .  S
Zr1030     O1696   2.384   1_565  S
O1031     Zr2350   2.383       .  S
O1031      H1039   0.966       .  S
O1033     Zr2343   2.370       .  S
O1034     Zr2326   2.370       .  S
O1034      H1038   0.966       .  S
O1035     Zr2343   2.366       .  S
O1035     Zr1689   2.383       .  S
O1035      H1040   0.966       .  S
O1036     Zr2326   2.371       .  S
O1036     Zr1690   2.384       .  S
O1053     Zr1065   2.452       .  S
O1053      C1055   1.291       .  A
O1054     Zr1091   2.414   1_655  S
O1054      C2375   1.283       .  A
C1055      O2374   1.283       .  A
C1055      C1309   1.491       .  S
O1056     Zr1068   2.449       .  S
O1056      C1058   1.290       .  A
O1057     Zr1092   2.416       .  S
O1057      C1058   1.285       .  A
C1058      C1177   1.477       .  S
O1059     Zr1068   2.446       .  S
O1059      C1061   1.288       .  A
O1060     Zr2411   2.416       .  S
O1060      C1061   1.284       .  A
C1061      C1189   1.465       .  S
O1062     Zr1065   2.445       .  S
O1062      C1064   1.291       .  A
O1063     Zr1092   2.419       .  S
O1063      C1064   1.284       .  A
C1064      C1300   1.497       .  S
Zr1065     O1066   2.434       .  S
Zr1065     O2387   2.435       .  S
Zr1065     O1071   2.370       .  S
Zr1065     O1072   2.372       .  S
Zr1065     O2415   2.370       .  S
Zr1065     O2417   2.368       .  S
O1066      H1109   0.990       .  S
O1067     Zr2385   2.435       .  S
O1067      H1108   0.990       .  S
O1067      H1112   0.990       .  S
Zr1068     O1069   2.436       .  S
Zr1068     O1072   2.371       .  S
Zr1068     O1071   2.371       .  S
O1069      H1110   0.990       .  S
O1069      H1113   0.990       .  S
O1070      H1103   0.990       .  S
O1071     Zr2411   2.382       .  S
O1072     Zr1092   2.385       .  S
O1072      H1099   0.966       .  S
O1073     Zr1085   2.447       .  S
O1074     Zr2412   2.420       .  S
C1075      C1201   1.473       .  S
O1076     Zr1088   2.428       .  S
O1076      C1078   1.284       .  A
O1077      C1078   1.288       .  A
C1078      C1273   1.490       .  S
O1079     Zr1088   2.423       .  S
O1079      C1081   1.284       .  A
O1080      C2401   1.287       .  A
C1081      O2400   1.287       .  A
C1081      C1288   1.464       .  S
O1082     Zr1085   2.442       .  S
O1083     Zr1091   2.418       .  S
C1084      C1213   1.464       .  S
Zr1085     O1087   2.434       .  S
Zr1085     O1097   2.370       .  S
Zr1085     O1095   2.369       .  S
O1086      H1106   0.990       .  S
O1086      H1111   0.990       .  S
O1087      H1107   0.990       .  S
Zr1088     O1089   2.433       .  S
Zr1088     O2410   2.435   1_455  S
Zr1088     O1094   2.371       .  S
Zr1088     O1093   2.373       .  S
Zr1088     O2418   2.369   1_455  S
Zr1088     O2416   2.365   1_455  S
O1089      H1105   0.990       .  S
O1090     Zr2408   2.435       .  S
O1090      H1104   0.990       .  S
O1090      H1114   0.990       .  S
Zr1091     O2380   2.416   1_455  S
Zr1091     O2391   2.382   1_455  S
Zr1091     O2086   2.380   1_455  S
Zr1091     O1097   2.385       .  S
Zr1092     O2394   2.420       .  S
Zr1092     O2083   2.381       .  S
Zr1092     O2415   2.381       .  S
O1093     Zr2082   2.381       .  S
O1093      H1101   0.965       .  S
O1095     Zr2385   2.370       .  S
O1095     Zr2412   2.381       .  S
O1096     Zr2408   2.365       .  S
O1096     Zr2081   2.380   1_556  S
O1096      H1100   0.966       .  S
O1097     Zr2385   2.368       .  S
O1097      H1102   0.965       .  S
O1098     Zr2408   2.369       .  S
O1115     Zr1127   2.444       .  S
O1115      C1117   1.287       .  A
O1116      C1117   1.285       .  A
C1117      C1192   1.466       .  S
O1118     Zr1130   2.444       .  S
O1119     Zr1154   2.423       .  S
O1119      C1120   1.286       .  A
C1120      C1252   1.471       .  S
O1121     Zr1130   2.439   1_565  S
O1122     Zr1153   2.424   1_545  S
C1123      C1261   1.472       .  S
O1124     Zr1127   2.438       .  S
O1124      C1126   1.287       .  A
O1125     Zr1154   2.428       .  S
O1125      C1126   1.286       .  A
C1126      C1216   1.467       .  S
Zr1127     O1128   2.434       .  S
Zr1127     O1133   2.372       .  S
Zr1127     O1134   2.370       .  S
O1128      H1171   0.990       .  S
O1129      H1170   0.990       .  S
O1129      H1174   0.990       .  S
Zr1130     O1132   2.434   1_545  S
Zr1130     O1158   2.373   1_545  S
Zr1130     O1160   2.370   1_545  S
O1131      H1172   0.990       .  S
O1131      H1175   0.990       .  S
O1132      H1165   0.990       .  S
O1134     Zr1154   2.385       .  S
O1134      H1161   0.965       .  S
O1135     Zr1147   2.438       .  S
C1137      C1237   1.476       .  S
O1138     Zr1150   2.447       .  S
O1139     Zr1153   2.419       .  S
C1140      C1180   1.479   1_554  S
O1141     Zr1150   2.445       .  S
C1143      C1204   1.470       .  S
O1144     Zr1147   2.436       .  S
O1145      C1146   1.286       .  A
C1146      C1228   1.479   1_565  S
Zr1147     O1149   2.434       .  S
Zr1147     O1159   2.371       .  S
Zr1147     O1157   2.373       .  S
O1148      H1168   0.990       .  S
O1148      H1173   0.990       .  S
O1149      H1169   0.990       .  S
Zr1150     O1152   2.434       .  S
Zr1150     O1160   2.371       .  S
Zr1150     O1158   2.368       .  S
O1151      H1167   0.990       .  S
O1152      H1166   0.990       .  S
O1152      H1176   0.990       .  S
Zr1153     O1158   2.383       .  S
O1155      H1163   0.966       .  S
O1158      H1162   0.965       .  S
O1159      H1164   0.966       .  S
C1177      C1178   1.404       .  A
C1178      C1179   1.399       .  A
C1178      H1187   1.084       .  S
C1179      S1183   1.804       .  S
C1180      C1181   1.404       .  A
C1181      C1182   1.399       .  A
C1181      H1188   1.084       .  S
C1182      S1184   1.803       .  S
S1183      H1186   1.403       .  S
S1184      H1185   1.407       .  S
C1189      C1194   1.412       .  A
C1190      C1191   1.398       .  A
C1190      H1199   1.084       .  S
C1191      S1195   1.805       .  S
C1192      C1193   1.402       .  A
C1193      C1194   1.400       .  A
C1193      H1200   1.084       .  S
C1194      S1196   1.805       .  S
S1195      H1198   1.403       .  S
S1196      H1197   1.404       .  S
C1201      C1206   1.413   1_554  A
C1202      C1203   1.401       .  A
C1202      H1211   1.084       .  S
C1203      S1207   1.804       .  S
C1204      C1205   1.401   1_554  A
C1205      C1206   1.397       .  A
C1205      H1212   1.084       .  S
C1206      S1208   1.800       .  S
S1207      H1210   1.407       .  S
S1208      H1209   1.403       .  S
C1213      C1214   1.399   1_554  A
C1214      C1215   1.396       .  A
C1214      H1223   1.084       .  S
C1215      S1219   1.801       .  S
C1216      C1217   1.402       .  A
C1217      C1218   1.400       .  A
C1217      H1224   1.084       .  S
C1218      S1220   1.807       .  S
S1219      H1222   1.403       .  S
S1220      H1221   1.401       .  S
C1225      C1230   1.414       .  A
C1226      C1227   1.401       .  A
C1226      H1235   1.081       .  S
C1227      C1228   1.414   1_565  A
C1227      S1231   1.804       .  S
C1229      C1230   1.398       .  A
C1229      H1236   1.084       .  S
C1230      S1232   1.803       .  S
S1231      H1234   1.407       .  S
S1232      H1233   1.408       .  S
C1237      C1238   1.405   1_545  A
C1238      C1239   1.402       .  A
C1238      H1247   1.084       .  S
C1239      C1240   1.413       .  A
C1239      S1243   1.805       .  S
C1241      C1242   1.398       .  A
C1241      H1248   1.084       .  S
C1242      S1244   1.805       .  S
S1243      H1246   1.407       .  S
S1244      H1245   1.402       .  S
C1249      C1254   1.413       .  A
C1250      C1251   1.398       .  A
C1250      H1259   1.084       .  S
C1251      C1252   1.412       .  A
C1251      S1255   1.804       .  S
C1253      C1254   1.401       .  A
C1253      H1260   1.084       .  S
C1254      S1256   1.804       .  S
S1255      H1258   1.405       .  S
S1256      H1257   1.406       .  S
C1261      C1262   1.404       .  A
C1262      C1263   1.401       .  A
C1262      H1271   1.084       .  S
C1263      C1264   1.413       .  A
C1263      S1267   1.805       .  S
C1265      C1266   1.397       .  A
C1265      H1272   1.084       .  S
C1266      S1268   1.806       .  S
S1267      H1270   1.407       .  S
S1268      H1269   1.402       .  S
C1273      C1274   1.407       .  A
C1273      C2598   1.419   1_455  A
C1274      C1275   1.403       .  A
C1274      H1283   1.084       .  S
C1275      C2596   1.419       .  A
C1275      S1279   1.800       .  S
C1276      C2595   1.419       .  A
C1276      C1277   1.404       .  A
C1277      C1278   1.394       .  A
C1277      H1284   1.084       .  S
C1278      C2593   1.419       .  A
C1278      S1280   1.801       .  S
S1279      H1282   1.408   1_455  S
S1280      H1281   1.408       .  S
C1285      C1286   1.399   1_655  A
C1285      C2610   1.410       .  A
C1286      C1287   1.395       .  A
C1286      H1295   1.085       .  S
C1287      C1288   1.415       .  A
C1287      S1291   1.808       .  S
C1288      C2609   1.402   1_455  A
C1289      C2608   1.402       .  A
C1289      C1290   1.398       .  A
C1289      H1296   1.085       .  S
C1290      C2605   1.410       .  A
C1290      S1292   1.801       .  S
S1291      H1294   1.398       .  S
S1292      H1293   1.406       .  S
C1297      C1298   1.408   1_655  A
C1297      C2622   1.422       .  A
C1298      C1299   1.404       .  A
C1298      H1307   1.083       .  S
C1299      C2620   1.421       .  A
C1299      S1303   1.802       .  S
C1300      C2619   1.421       .  A
C1300      C1301   1.405       .  A
C1301      C1302   1.394       .  A
C1301      H1308   1.083       .  S
C1302      C2617   1.422       .  A
C1302      S1304   1.803       .  S
S1303      H1306   1.408       .  S
S1304      H1305   1.407       .  S
C1309      C1310   1.406       .  A
C1309      C2634   1.420       .  A
C1310      C1311   1.398       .  A
C1310      H1319   1.084       .  S
C1311      C1312   1.417       .  A
C1311      S1315   1.802       .  S
C1312      C2633   1.405       .  A
C1313      C2632   1.405   1_455  A
C1313      C1314   1.400       .  A
C1313      H1320   1.084       .  S
C1314      C2629   1.420   1_455  A
C1314      S1316   1.801       .  S
S1315      H1318   1.408       .  S
S1316      H1317   1.408   1_455  S
O1321     Zr1333   2.442       .  S
O1321      C1323   1.288       .  A
O1322      C1323   1.286       .  A
C1323      C1594   1.471       .  S
O1324     Zr1336   2.444       .  S
O1324      C1326   1.290       .  A
O1325     Zr2020   2.419   1_545  S
O1325      C1326   1.284       .  A
C1326      C1606   1.491       .  S
O1327     Zr1336   2.443   1_655  S
O1327      C1329   1.288       .  A
O1328     Zr1359   2.424   1_545  S
C1329      C1642   1.489       .  S
O1330     Zr1333   2.449       .  S
O1330      C1332   1.290       .  A
O1331     Zr1360   2.421   1_655  S
O1331      C1992   1.286       .  A
C1332      O1991   1.286       .  A
C1332      C1555   1.482       .  S
Zr1333     O1334   2.434       .  S
Zr1333     O1995   2.435   1_545  S
Zr1333     O1339   2.371       .  S
Zr1333     O1340   2.368       .  S
Zr1333     O2023   2.370   1_545  S
Zr1333     O2025   2.375   1_545  S
O1334      H1377   0.990       .  S
O1335     Zr1993   2.435       .  S
O1335      H1376   0.990       .  S
O1335      H1380   0.990       .  S
Zr1336     O1337   2.436   1_455  S
Zr1336     O1340   2.368   1_455  S
Zr1336     O1339   2.371   1_455  S
O1337      H1378   0.990       .  S
O1337      H1381   0.990       .  S
O1338      H1371   0.990       .  S
O1340     Zr2020   2.384   1_645  S
O1340      H1367   0.966       .  S
O1341     Zr1353   2.426       .  S
O1341      C1343   1.284       .  A
O1342     Zr1360   2.425   1_655  S
C1343      C1615   1.464       .  S
O1344     Zr1356   2.442       .  S
O1344      C1346   1.288       .  A
O1345     Zr1359   2.426       .  S
O1345      C2006   1.287       .  A
C1346      O2005   1.287       .  A
C1346      C1579   1.471       .  S
O1347     Zr1356   2.443       .  S
O1347      C1349   1.288       .  A
O1348      C1349   1.287       .  A
C1349      C1570   1.475       .  S
O1350     Zr1353   2.427       .  S
O1350      C1352   1.283       .  A
O1351     Zr2019   2.438       .  S
O1351      C1352   1.289       .  A
C1352      C1627   1.497       .  S
Zr1353     O1354   2.436       .  S
Zr1353     O1361   2.368       .  S
Zr1353     O1362   2.368       .  S
O1354      H1374   0.990       .  S
O1354      H1379   0.990       .  S
O1355      H1375   0.990       .  S
Zr1356     O1357   2.434       .  S
Zr1356     O2018   2.435       .  S
Zr1356     O1362   2.373       .  S
Zr1356     O1361   2.373       .  S
Zr1356     O2026   2.370       .  S
Zr1356     O2024   2.371       .  S
O1357      H1373   0.990       .  S
O1358     Zr2016   2.435   1_545  S
O1358      H1372   0.990       .  S
O1358      H1382   0.990       .  S
Zr1359     O2011   2.438       .  S
Zr1359     O2022   2.379       .  S
Zr1359     O1364   2.387   1_565  S
Zr1360     O1985   2.419       .  S
Zr1360     O2000   2.384   1_455  S
Zr1360     O1363   2.378   1_455  S
O1361      H1369   0.966       .  S
O1362     Zr2019   2.379       .  S
O1363     Zr1993   2.370       .  S
O1364     Zr2016   2.371   1_545  S
O1364      H1368   0.966       .  S
O1365     Zr1993   2.375       .  S
O1365      H1370   0.966       .  S
O1366     Zr2016   2.370   1_545  S
O1383     Zr1395   2.452   1_655  S
O1383      C1385   1.291       .  A
O1384     Zr1421   2.414       .  S
C1385      C1639   1.491       .  S
O1386     Zr1398   2.449       .  S
O1386      C1388   1.290       .  A
O1387     Zr1422   2.416   1_655  S
O1387      C1388   1.285       .  A
C1388      C1507   1.477       .  S
O1389     Zr1398   2.446   1_554  S
O1389      C1391   1.288       .  A
O1390      C1391   1.284       .  A
C1391      C1519   1.465       .  S
O1392     Zr1395   2.445       .  S
O1392      C1394   1.291       .  A
O1393     Zr1422   2.419   1_554  S
O1393      C1394   1.284       .  A
C1394      C1630   1.497       .  S
Zr1395     O1396   2.434   1_455  S
Zr1395     O1401   2.370   1_455  S
Zr1395     O1402   2.372   1_455  S
O1396      H1439   0.990       .  S
O1397      H1438   0.990       .  S
O1397      H1442   0.990       .  S
Zr1398     O1399   2.436   1_556  S
Zr1398     O1730   2.435       .  S
Zr1398     O1402   2.371   1_556  S
Zr1398     O1401   2.371   1_556  S
Zr1398     O1756   2.375       .  S
Zr1398     O1758   2.372       .  S
O1399      H1440   0.990       .  S
O1399      H1443   0.990       .  S
O1400     Zr1728   2.435       .  S
O1400      H1433   0.990       .  S
O1402     Zr1422   2.385   1_654  S
O1402      H1429   0.966       .  S
O1403     Zr1415   2.447       .  S
O1403      C1735   1.288       .  A
O1404      C1735   1.286   1_556  A
C1405      O1733   1.288       .  A
C1405      O1734   1.286       .  A
C1405      C1531   1.473       .  S
O1406     Zr1418   2.428       .  S
O1406      C1408   1.284       .  A
O1407     Zr1751   2.434       .  S
O1407      C1408   1.288       .  A
C1408      C1603   1.490       .  S
O1409     Zr1418   2.423       .  S
O1409      C1411   1.284       .  A
O1410     Zr1752   2.428       .  S
C1411      C1618   1.464       .  S
O1412     Zr1415   2.442       .  S
O1412      C1744   1.287       .  A
O1413     Zr1421   2.418       .  S
O1413      C1744   1.285       .  A
C1414      O1742   1.287       .  A
C1414      O1743   1.285       .  A
C1414      C1543   1.464       .  S
Zr1415     O1746   2.436   1_554  S
Zr1415     O1417   2.434       .  S
Zr1415     O1753   2.371   1_554  S
Zr1415     O1754   2.376   1_554  S
Zr1415     O1427   2.370       .  S
Zr1415     O1425   2.369       .  S
O1416     Zr1745   2.436       .  S
O1416      H1436   0.990       .  S
O1416      H1441   0.990       .  S
O1417      H1437   0.990       .  S
Zr1418     O1419   2.433       .  S
Zr1418     O1424   2.371       .  S
Zr1418     O1423   2.373       .  S
O1419      H1435   0.990       .  S
O1420      H1434   0.990       .  S
O1420      H1444   0.990       .  S
Zr1421     O1737   2.434   1_554  S
Zr1421     O1754   2.378   1_554  S
Zr1421     O1427   2.385       .  S
Zr1422     O1740   2.428       .  S
Zr1422     O1758   2.377   1_455  S
O1423     Zr1745   2.371       .  S
O1423      H1431   0.965       .  S
O1424     Zr1745   2.376       .  S
O1424     Zr1751   2.378       .  S
O1426     Zr1728   2.375       .  S
O1426      H1430   0.966       .  S
O1427      H1432   0.965       .  S
O1428     Zr1728   2.372       .  S
O1428     Zr1752   2.377   1_655  S
O1445     Zr1457   2.444       .  S
O1445      C1447   1.287       .  A
O1446     Zr2143   2.418   1_545  S
O1446      C1447   1.285       .  A
C1447      C1522   1.466       .  S
O1448     Zr1460   2.444       .  S
O1448      C2110   1.288       .  A
O1449     Zr1484   2.423   1_565  S
O1449      C1450   1.286   1_565  A
C1450      O2108   1.288       .  A
C1450      C1582   1.471       .  S
O1451     Zr1460   2.439       .  S
O1451      C2113   1.288       .  A
O1452     Zr1483   2.424       .  S
O1452      C2113   1.286       .  A
C1453      O2111   1.288   1_545  A
C1453      O2112   1.286       .  A
C1453      C1591   1.472   1_545  S
O1454     Zr1457   2.438       .  S
O1454      C1456   1.287       .  A
O1455     Zr1484   2.427   1_556  S
O1455      C1456   1.286   1_556  A
C1456      C1546   1.467       .  S
Zr1457     O1458   2.434       .  S
Zr1457     O1789   2.435   1_554  S
Zr1457     O1463   2.372       .  S
Zr1457     O1464   2.370       .  S
Zr1457     O1817   2.375   1_554  S
Zr1457     O1819   2.369   1_554  S
O1458      H1501   0.990       .  S
O1459     Zr1787   2.435       .  S
O1459      H1500   0.990       .  S
O1459      H1504   0.990       .  S
Zr1460     O2121   2.435       .  S
Zr1460     O1462   2.434       .  S
Zr1460     O2124   2.370       .  S
Zr1460     O2123   2.372       .  S
Zr1460     O1488   2.373       .  S
Zr1460     O1490   2.370       .  S
O1461     Zr2120   2.435       .  S
O1461      H1502   0.990       .  S
O1461      H1505   0.990       .  S
O1462      H1495   0.990       .  S
O1463     Zr2120   2.372       .  S
O1463     Zr2143   2.380   1_545  S
O1464     Zr2120   2.370       .  S
O1464     Zr1484   2.385       .  S
O1464      H1491   0.965       .  S
O1465     Zr1477   2.438   1_545  S
O1465      C2127   1.287       .  A
O1466     Zr1814   2.430   1_565  S
O1466      C2127   1.287   1_565  A
C1467      O2125   1.287       .  A
C1467      O2126   1.287       .  A
C1467      C1567   1.476       .  S
O1468     Zr1480   2.447   1_556  S
O1468      C1800   1.289   1_556  A
O1469     Zr1483   2.419       .  S
O1469      C1800   1.286       .  A
C1470      O1798   1.289       .  A
C1470      O1799   1.286       .  A
C1470      C1510   1.479       .  S
O1471     Zr1480   2.445       .  S
O1471      C1803   1.288       .  A
O1472     Zr2144   2.416       .  S
O1472      C1803   1.285       .  A
C1473      O1801   1.288       .  A
C1473      O1802   1.285       .  A
C1473      C1534   1.470       .  S
O1474     Zr1477   2.436       .  S
O1474      C2136   1.288       .  A
O1475     Zr1813   2.426       .  S
O1475      C1476   1.287       .  A
C1476      O2134   1.288       .  A
C1476      C1558   1.479       .  S
Zr1477     O2138   2.435       .  S
Zr1477     O1479   2.434   1_565  S
Zr1477     O2145   2.372       .  S
Zr1477     O2146   2.371       .  S
Zr1477     O1489   2.371   1_565  S
Zr1477     O1487   2.373   1_565  S
O1478     Zr2137   2.435       .  S
O1478      H1498   0.990       .  S
O1478      H1503   0.990       .  S
O1479      H1499   0.990       .  S
Zr1480     O1811   2.434   1_554  S
Zr1480     O1482   2.434       .  S
Zr1480     O1816   2.372   1_554  S
Zr1480     O1815   2.372   1_554  S
Zr1480     O1490   2.371       .  S
Zr1480     O1488   2.368       .  S
O1481     Zr1810   2.434       .  S
O1481      H1497   0.990       .  S
O1482      H1496   0.990       .  S
O1482      H1506   0.990       .  S
Zr1483     O2106   2.418       .  S
Zr1483     O1805   2.426   1_554  S
Zr1483     O2123   2.380       .  S
Zr1483     O1816   2.380   1_554  S
Zr1483     O1488   2.383       .  S
Zr1483     O2479   2.383   1_554  S
Zr1484     O1796   2.430   1_544  S
Zr1484     O2132   2.416   1_545  S
Zr1484     O2475   2.384   1_544  S
Zr1484     O1817   2.381   1_554  S
Zr1484     O2150   2.382   1_545  S
O1485     Zr2137   2.372       .  S
O1485     Zr1810   2.372       .  S
O1485     Zr2474   2.384       .  S
O1485      H1493   0.966       .  S
O1486     Zr2137   2.371       .  S
O1486     Zr1810   2.372       .  S
O1486     Zr1813   2.380       .  S
O1487     Zr1787   2.375       .  S
O1487     Zr1814   2.381       .  S
O1488      H1492   0.965       .  S
O1489     Zr1787   2.369       .  S
O1489     Zr2473   2.383   1_545  S
O1489      H1494   0.966       .  S
O1490     Zr2144   2.382       .  S
C1507      C1508   1.404   1_556  A
C1507      C1842   1.412       .  A
C1508      C1509   1.399       .  A
C1508      H1517   1.084       .  S
C1509      C1840   1.415   1_554  A
C1509      S1513   1.804       .  S
C1510      C1839   1.415       .  A
C1510      C1511   1.404       .  A
C1511      C1512   1.399       .  A
C1511      H1518   1.084       .  S
C1512      C1837   1.412       .  A
C1512      S1514   1.803       .  S
S1513      H1516   1.403       .  S
S1514      H1515   1.407       .  S
C1519      C1850   1.401   1_554  A
C1519      C1524   1.412       .  A
C1520      C1849   1.401       .  A
C1520      C1521   1.398       .  A
C1520      H1529   1.084       .  S
C1521      C1852   1.411       .  A
C1521      S1525   1.805       .  S
C1522      C1851   1.411   1_554  A
C1522      C1523   1.402       .  A
C1523      C1524   1.400       .  A
C1523      H1530   1.084       .  S
C1524      S1526   1.805       .  S
S1525      H1528   1.403       .  S
S1526      H1527   1.404       .  S
C1531      C1862   1.403       .  A
C1531      C1536   1.413       .  A
C1532      C1861   1.403       .  A
C1532      C1533   1.401       .  A
C1532      H1541   1.084       .  S
C1533      C1864   1.412       .  A
C1533      S1537   1.804       .  S
C1534      C1863   1.412       .  A
C1534      C1535   1.401       .  A
C1535      C1536   1.397       .  A
C1535      H1542   1.084       .  S
C1536      S1538   1.800       .  S
S1537      H1540   1.407       .  S
S1538      H1539   1.403       .  S
C1543      C1544   1.399       .  A
C1543      C1878   1.413       .  A
C1544      C1545   1.396       .  A
C1544      H1553   1.084       .  S
C1545      C1876   1.411       .  A
C1545      S1549   1.801       .  S
C1546      C1875   1.411   1_554  A
C1546      C1547   1.402       .  A
C1547      C1548   1.400       .  A
C1547      H1554   1.084       .  S
C1548      C1873   1.413       .  A
C1548      S1550   1.807       .  S
S1549      H1552   1.403       .  S
S1550      H1551   1.401       .  S
C1555      C2216   1.405   1_545  A
C1555      C1560   1.414       .  A
C1556      C2215   1.405       .  A
C1556      C1557   1.400       .  A
C1556      H1565   1.081       .  S
C1557      C1558   1.413       .  A
C1557      S1561   1.804       .  S
C1558      C2219   1.404       .  A
C1559      C2218   1.404       .  A
C1559      C1560   1.398       .  A
C1559      H1566   1.084       .  S
C1560      S1562   1.803       .  S
S1561      H1564   1.407       .  S
S1562      H1563   1.408       .  S
C1567      C1568   1.405       .  A
C1567      C2232   1.415       .  A
C1568      C1569   1.402       .  A
C1568      H1577   1.084       .  S
C1569      C1570   1.413       .  A
C1569      S1573   1.805       .  S
C1570      C2231   1.402       .  A
C1571      C2230   1.402   1_545  A
C1571      C1572   1.398       .  A
C1571      H1578   1.084       .  S
C1572      C2227   1.415       .  A
C1572      S1574   1.805       .  S
S1573      H1576   1.407       .  S
S1574      H1575   1.402       .  S
C1579      C2240   1.402       .  A
C1579      C1584   1.413       .  A
C1580      C2239   1.402   1_545  A
C1580      C1581   1.398       .  A
C1580      H1589   1.084       .  S
C1581      C1582   1.412       .  A
C1581      S1585   1.804       .  S
C1582      C2243   1.403   1_545  A
C1583      C2242   1.403       .  A
C1583      C1584   1.401       .  A
C1583      H1590   1.084       .  S
C1584      S1586   1.804       .  S
S1585      H1588   1.405       .  S
S1586      H1587   1.406       .  S
C1591      C1592   1.404   1_565  A
C1591      C2256   1.414       .  A
C1592      C1593   1.401       .  A
C1592      H1601   1.084       .  S
C1593      C1594   1.413       .  A
C1593      S1597   1.805       .  S
C1594      C2255   1.401   1_545  A
C1595      C2254   1.401       .  A
C1595      C1596   1.397       .  A
C1595      H1602   1.084       .  S
C1596      C2251   1.414       .  A
C1596      S1598   1.806       .  S
S1597      H1600   1.407       .  S
S1598      H1599   1.402       .  S
C1603      C1604   1.407       .  A
C1604      C1605   1.403       .  A
C1604      H1613   1.084       .  S
C1605      S1609   1.800       .  S
C1606      C1607   1.404   1_455  A
C1607      C1608   1.394       .  A
C1607      H1614   1.084       .  S
C1608      S1610   1.801       .  S
S1609      H1612   1.408       .  S
S1610      H1611   1.408   1_655  S
C1615      C1616   1.399       .  A
C1616      C1617   1.395       .  A
C1616      H1625   1.085       .  S
C1617      C1618   1.415       .  A
C1617      S1621   1.808       .  S
C1619      C1620   1.398       .  A
C1619      H1626   1.085       .  S
C1620      S1622   1.801       .  S
S1621      H1624   1.398       .  S
S1622      H1623   1.406       .  S
C1627      C1628   1.408       .  A
C1628      C1629   1.404       .  A
C1628      H1637   1.083       .  S
C1629      S1633   1.802       .  S
C1630      C1631   1.405   1_455  A
C1631      C1632   1.394       .  A
C1631      H1638   1.083       .  S
C1632      S1634   1.803       .  S
S1633      H1636   1.408       .  S
S1634      H1635   1.407       .  S
C1639      C1640   1.406       .  A
C1640      C1641   1.398       .  A
C1640      H1649   1.084       .  S
C1641      C1642   1.417       .  A
C1641      S1645   1.802       .  S
C1643      C1644   1.400       .  A
C1643      H1650   1.084       .  S
C1644      S1646   1.801       .  S
S1645      H1648   1.408       .  S
S1646      H1647   1.408       .  S
O1651     Zr1663   2.441       .  S
O1651      C1653   1.288       .  A
O1652      C1653   1.286       .  A
C1653      C1924   1.471       .  S
O1654     Zr1666   2.444       .  S
O1654      C1656   1.290       .  A
O1655     Zr2350   2.419   1_545  S
O1655      C1656   1.284       .  A
C1656      C1936   1.491       .  S
O1657     Zr1666   2.443   1_655  S
O1657      C1659   1.288       .  A
O1658     Zr1689   2.424   1_545  S
C1659      C1972   1.489       .  S
O1660     Zr1663   2.449       .  S
O1660      C1662   1.290       .  A
O1661     Zr1690   2.421   1_655  S
O1661      C2322   1.286       .  A
C1662      O2321   1.286       .  A
C1662      C1885   1.481       .  S
Zr1663     O1664   2.434       .  S
Zr1663     O2325   2.435   1_545  S
Zr1663     O1669   2.371       .  S
Zr1663     O1670   2.368       .  S
Zr1663     O2353   2.370   1_545  S
Zr1663     O2355   2.375   1_545  S
O1664      H1707   0.990       .  S
O1665     Zr2323   2.435       .  S
O1665      H1706   0.990       .  S
O1665      H1710   0.990       .  S
Zr1666     O1667   2.436   1_455  S
Zr1666     O1670   2.368   1_455  S
Zr1666     O1669   2.371   1_455  S
O1667      H1708   0.990       .  S
O1667      H1711   0.990       .  S
O1668      H1701   0.990       .  S
O1670     Zr2350   2.384   1_645  S
O1670      H1697   0.966       .  S
O1671     Zr1683   2.426       .  S
O1671      C1673   1.284       .  A
O1672     Zr1690   2.425   1_655  S
C1673      C1945   1.464       .  S
O1674     Zr1686   2.442       .  S
O1674      C1676   1.288       .  A
O1675     Zr1689   2.426       .  S
O1675      C2336   1.287       .  A
C1676      O2335   1.287       .  A
C1676      C1909   1.471       .  S
O1677     Zr1686   2.443       .  S
O1677      C1679   1.288       .  A
O1678      C1679   1.287       .  A
C1679      C1900   1.475       .  S
O1680     Zr1683   2.427       .  S
O1680      C1682   1.283       .  A
O1681     Zr2349   2.438       .  S
O1681      C1682   1.289       .  A
C1682      C1957   1.497       .  S
Zr1683     O1684   2.436       .  S
Zr1683     O1691   2.368       .  S
Zr1683     O1692   2.368       .  S
O1684      H1704   0.990       .  S
O1684      H1709   0.990       .  S
O1685      H1705   0.990       .  S
Zr1686     O1687   2.434       .  S
Zr1686     O2348   2.435       .  S
Zr1686     O1692   2.373       .  S
Zr1686     O1691   2.373       .  S
Zr1686     O2356   2.370       .  S
Zr1686     O2354   2.371       .  S
O1687      H1703   0.990       .  S
O1688     Zr2346   2.435   1_545  S
O1688      H1702   0.990       .  S
O1688      H1712   0.990       .  S
Zr1689     O2341   2.438       .  S
Zr1689     O2352   2.379       .  S
Zr1689     O1694   2.387   1_565  S
Zr1690     O2315   2.419       .  S
Zr1690     O2330   2.384   1_455  S
Zr1690     O1693   2.378   1_455  S
O1691      H1699   0.966       .  S
O1692     Zr2349   2.379       .  S
O1693     Zr2323   2.370       .  S
O1694     Zr2346   2.371   1_545  S
O1694      H1698   0.966       .  S
O1695     Zr2323   2.375       .  S
O1695      H1700   0.966       .  S
O1696     Zr2346   2.370   1_545  S
O1713     Zr1725   2.452   1_655  S
O1713      C1715   1.291       .  A
O1714     Zr1751   2.414       .  S
C1715      C1969   1.491       .  S
O1716     Zr1728   2.449       .  S
O1716      C1718   1.290       .  A
O1717     Zr1752   2.415   1_655  S
O1717      C1718   1.285       .  A
C1718      C1837   1.477       .  S
O1719     Zr1728   2.446       .  S
O1719      C1721   1.288       .  A
O1720      C1721   1.284       .  A
C1721      C1849   1.465       .  S
O1722     Zr1725   2.445       .  S
O1722      C1724   1.291       .  A
O1723     Zr1752   2.419       .  S
O1723      C1724   1.284       .  A
C1724      C1960   1.497       .  S
Zr1725     O1726   2.434   1_455  S
Zr1725     O1731   2.370   1_455  S
Zr1725     O1732   2.372   1_455  S
O1726      H1769   0.990       .  S
O1727      H1768   0.990       .  S
O1727      H1772   0.990       .  S
Zr1728     O1729   2.436       .  S
Zr1728     O1732   2.371       .  S
Zr1728     O1731   2.371       .  S
O1729      H1770   0.990       .  S
O1729      H1773   0.990       .  S
O1730      H1763   0.990       .  S
O1732     Zr1752   2.385   1_655  S
O1732      H1759   0.966       .  S
O1733     Zr1745   2.447       .  S
C1735      C1861   1.473       .  S
O1736     Zr1748   2.428       .  S
O1736      C1738   1.284       .  A
O1737      C1738   1.288       .  A
C1738      C1933   1.490       .  S
O1739     Zr1748   2.423       .  S
O1739      C1741   1.284       .  A
C1741      C1948   1.464       .  S
O1742     Zr1745   2.442       .  S
O1743     Zr1751   2.418       .  S
C1744      C1873   1.464       .  S
Zr1745     O1747   2.434       .  S
Zr1745     O1757   2.370       .  S
Zr1745     O1755   2.369       .  S
O1746      H1766   0.990       .  S
O1746      H1771   0.990       .  S
O1747      H1767   0.990       .  S
Zr1748     O1749   2.433       .  S
Zr1748     O1754   2.371       .  S
Zr1748     O1753   2.373       .  S
O1749      H1765   0.990       .  S
O1750      H1764   0.990       .  S
O1750      H1774   0.990       .  S
Zr1751     O1757   2.385       .  S
O1753      H1761   0.965       .  S
O1756      H1760   0.966       .  S
O1757      H1762   0.965       .  S
O1775     Zr1787   2.444       .  S
O1775      C1777   1.287       .  A
O1776     Zr2473   2.418   1_545  S
O1776      C1777   1.285       .  A
C1777      C1852   1.466       .  S
O1778     Zr1790   2.444       .  S
O1778      C2440   1.288       .  A
O1779     Zr1814   2.423   1_565  S
O1779      C1780   1.286   1_565  A
C1780      O2438   1.288       .  A
C1780      C1912   1.471       .  S
O1781     Zr1790   2.439       .  S
O1781      C2443   1.288       .  A
O1782     Zr1813   2.424       .  S
O1782      C2443   1.286       .  A
C1783      O2441   1.288   1_545  A
C1783      O2442   1.286       .  A
C1783      C1921   1.472   1_545  S
O1784     Zr1787   2.438       .  S
O1784      C1786   1.287       .  A
O1785     Zr1814   2.427       .  S
O1785      C1786   1.286       .  A
C1786      C1876   1.467       .  S
Zr1787     O1788   2.434       .  S
Zr1787     O1793   2.372       .  S
Zr1787     O1794   2.370       .  S
O1788      H1831   0.990       .  S
O1789      H1830   0.990       .  S
O1789      H1834   0.990       .  S
Zr1790     O2451   2.435       .  S
Zr1790     O1792   2.434       .  S
Zr1790     O2454   2.370       .  S
Zr1790     O2453   2.372       .  S
Zr1790     O1818   2.373       .  S
Zr1790     O1820   2.370       .  S
O1791     Zr2450   2.435       .  S
O1791      H1832   0.990       .  S
O1791      H1835   0.990       .  S
O1792      H1825   0.990       .  S
O1793     Zr2450   2.373       .  S
O1793     Zr2473   2.380   1_545  S
O1794     Zr2450   2.370       .  S
O1794     Zr1814   2.385       .  S
O1794      H1821   0.965       .  S
O1795     Zr1807   2.439   1_545  S
O1795      C2457   1.287       .  A
O1796      C2457   1.287   1_565  A
C1797      O2455   1.287       .  A
C1797      O2456   1.287       .  A
C1797      C1897   1.476       .  S
O1798     Zr1810   2.447       .  S
O1799     Zr1813   2.419       .  S
C1800      C1840   1.479   1_554  S
O1801     Zr1810   2.445       .  S
O1802     Zr2474   2.416       .  S
C1803      C1864   1.470       .  S
O1804     Zr1807   2.440       .  S
O1804      C2466   1.288       .  A
O1805      C1806   1.287       .  A
C1806      O2464   1.288       .  A
C1806      C1888   1.479       .  S
Zr1807     O2468   2.435       .  S
Zr1807     O1809   2.434   1_565  S
Zr1807     O2475   2.372       .  S
Zr1807     O2476   2.371       .  S
Zr1807     O1819   2.370   1_565  S
Zr1807     O1817   2.373   1_565  S
O1808     Zr2467   2.435       .  S
O1808      H1828   0.990       .  S
O1808      H1833   0.990       .  S
O1809      H1829   0.990       .  S
Zr1810     O1812   2.434       .  S
Zr1810     O1820   2.371       .  S
Zr1810     O1818   2.368       .  S
O1811      H1827   0.990       .  S
O1812      H1826   0.990       .  S
O1812      H1836   0.990       .  S
Zr1813     O2436   2.418       .  S
Zr1813     O2453   2.380       .  S
Zr1813     O1818   2.383       .  S
Zr1813     O2149   2.383       .  S
Zr1814     O2462   2.416   1_545  S
Zr1814     O2145   2.384   1_545  S
Zr1814     O2480   2.382   1_545  S
O1815     Zr2467   2.372       .  S
O1815     Zr2144   2.384   1_556  S
O1815      H1823   0.966       .  S
O1816     Zr2467   2.371       .  S
O1818      H1822   0.965       .  S
O1819     Zr2143   2.383   1_546  S
O1819      H1824   0.966       .  S
O1820     Zr2474   2.382       .  S
C1837      C1838   1.404       .  A
C1838      C1839   1.399       .  A
C1838      H1847   1.084       .  S
C1839      S1843   1.804       .  S
C1840      C1841   1.404       .  A
C1841      C1842   1.399       .  A
C1841      H1848   1.084       .  S
C1842      S1844   1.803       .  S
S1843      H1846   1.403       .  S
S1844      H1845   1.407       .  S
C1849      C1854   1.412       .  A
C1850      C1851   1.398       .  A
C1850      H1859   1.084       .  S
C1851      S1855   1.805       .  S
C1852      C1853   1.402       .  A
C1853      C1854   1.400       .  A
C1853      H1860   1.084       .  S
C1854      S1856   1.805       .  S
S1855      H1858   1.403       .  S
S1856      H1857   1.404       .  S
C1861      C1866   1.413   1_554  A
C1862      C1863   1.401       .  A
C1862      H1871   1.084       .  S
C1863      S1867   1.804       .  S
C1864      C1865   1.401   1_554  A
C1865      C1866   1.397       .  A
C1865      H1872   1.084       .  S
C1866      S1868   1.800       .  S
S1867      H1870   1.407       .  S
S1868      H1869   1.403       .  S
C1873      C1874   1.399   1_554  A
C1874      C1875   1.396       .  A
C1874      H1883   1.084       .  S
C1875      S1879   1.801       .  S
C1876      C1877   1.402       .  A
C1877      C1878   1.400       .  A
C1877      H1884   1.084       .  S
C1878      S1880   1.807       .  S
S1879      H1882   1.403       .  S
S1880      H1881   1.401       .  S
C1885      C2546   1.405   1_545  A
C1885      C1890   1.413       .  A
C1886      C2545   1.405       .  A
C1886      C1887   1.400       .  A
C1886      H1895   1.081       .  S
C1887      C1888   1.413       .  A
C1887      S1891   1.804       .  S
C1888      C2549   1.404       .  A
C1889      C2548   1.404       .  A
C1889      C1890   1.397       .  A
C1889      H1896   1.084       .  S
C1890      S1892   1.804       .  S
S1891      H1894   1.407       .  S
S1892      H1893   1.407       .  S
C1897      C1898   1.405       .  A
C1897      C2562   1.415       .  A
C1898      C1899   1.402       .  A
C1898      H1907   1.084       .  S
C1899      C1900   1.413       .  A
C1899      S1903   1.805       .  S
C1900      C2561   1.402       .  A
C1901      C2560   1.402   1_545  A
C1901      C1902   1.398       .  A
C1901      H1908   1.084       .  S
C1902      C2557   1.415       .  A
C1902      S1904   1.805       .  S
S1903      H1906   1.407       .  S
S1904      H1905   1.402       .  S
C1909      C2570   1.402       .  A
C1909      C1914   1.413       .  A
C1910      C2569   1.402   1_545  A
C1910      C1911   1.398       .  A
C1910      H1919   1.084       .  S
C1911      C1912   1.412       .  A
C1911      S1915   1.804       .  S
C1912      C2573   1.403   1_545  A
C1913      C2572   1.403       .  A
C1913      C1914   1.401       .  A
C1913      H1920   1.084       .  S
C1914      S1916   1.804       .  S
S1915      H1918   1.405       .  S
S1916      H1917   1.406       .  S
C1921      C1922   1.404   1_565  A
C1921      C2586   1.414       .  A
C1922      C1923   1.401       .  A
C1922      H1931   1.084       .  S
C1923      C1924   1.413       .  A
C1923      S1927   1.805       .  S
C1924      C2585   1.401   1_545  A
C1925      C2584   1.401       .  A
C1925      C1926   1.397       .  A
C1925      H1932   1.084       .  S
C1926      C2581   1.414       .  A
C1926      S1928   1.806       .  S
S1927      H1930   1.407       .  S
S1928      H1929   1.402       .  S
C1933      C1934   1.407       .  A
C1934      C1935   1.403       .  A
C1934      H1943   1.084       .  S
C1935      S1939   1.800       .  S
C1936      C1937   1.404   1_455  A
C1937      C1938   1.394       .  A
C1937      H1944   1.084       .  S
C1938      S1940   1.801       .  S
S1939      H1942   1.408       .  S
S1940      H1941   1.408   1_655  S
C1945      C1946   1.399       .  A
C1946      C1947   1.395       .  A
C1946      H1955   1.085       .  S
C1947      C1948   1.415       .  A
C1947      S1951   1.808       .  S
C1949      C1950   1.398       .  A
C1949      H1956   1.085       .  S
C1950      S1952   1.801       .  S
S1951      H1954   1.398       .  S
S1952      H1953   1.406       .  S
C1957      C1958   1.408       .  A
C1958      C1959   1.404       .  A
C1958      H1967   1.083       .  S
C1959      S1963   1.802       .  S
C1960      C1961   1.405   1_455  A
C1961      C1962   1.394       .  A
C1961      H1968   1.083       .  S
C1962      S1964   1.803       .  S
S1963      H1966   1.408       .  S
S1964      H1965   1.407       .  S
C1969      C1970   1.406       .  A
C1970      C1971   1.398       .  A
C1970      H1979   1.084       .  S
C1971      C1972   1.417       .  A
C1971      S1975   1.802       .  S
C1973      C1974   1.400       .  A
C1973      H1980   1.084       .  S
C1974      S1976   1.801       .  S
S1975      H1978   1.408       .  S
S1976      H1977   1.408       .  S
O1981     Zr1993   2.442       .  S
O1981      C1983   1.288       .  A
O1982      C1983   1.286       .  A
C1983      C2254   1.471       .  S
O1984     Zr1996   2.444       .  S
O1984      C1986   1.290       .  A
O1985      C1986   1.284       .  A
C1986      C2266   1.491       .  S
O1987     Zr1996   2.443   1_655  S
O1987      C1989   1.288       .  A
O1988     Zr2019   2.424       .  S
C1989      C2302   1.489       .  S
O1990     Zr1993   2.449       .  S
O1990      C1992   1.290       .  A
O1991     Zr2020   2.421   1_645  S
C1992      C2215   1.482       .  S
Zr1993     O1994   2.434       .  S
Zr1993     O1999   2.371       .  S
Zr1993     O2000   2.368       .  S
O1994      H2037   0.990       .  S
O1995      H2036   0.990       .  S
O1995      H2040   0.990       .  S
Zr1996     O1997   2.436   1_455  S
Zr1996     O2000   2.368   1_455  S
Zr1996     O1999   2.371   1_455  S
O1997      H2038   0.990       .  S
O1997      H2041   0.990       .  S
O1998      H2031   0.990       .  S
O2000      H2027   0.966       .  S
O2001     Zr2013   2.426       .  S
O2001      C2003   1.284       .  A
O2002     Zr2020   2.425   1_655  S
C2003      C2275   1.464       .  S
O2004     Zr2016   2.442       .  S
O2004      C2006   1.288       .  A
O2005     Zr2019   2.426       .  S
C2006      C2239   1.471       .  S
O2007     Zr2016   2.443       .  S
O2007      C2009   1.288       .  A
O2008      C2009   1.287       .  A
C2009      C2230   1.475       .  S
O2010     Zr2013   2.427       .  S
O2010      C2012   1.283       .  A
O2011      C2012   1.289       .  A
C2012      C2287   1.497       .  S
Zr2013     O2014   2.436       .  S
Zr2013     O2021   2.368       .  S
Zr2013     O2022   2.368       .  S
O2014      H2034   0.990       .  S
O2014      H2039   0.990       .  S
O2015      H2035   0.990       .  S
Zr2016     O2017   2.434       .  S
Zr2016     O2022   2.373       .  S
Zr2016     O2021   2.373       .  S
O2017      H2033   0.990       .  S
O2018      H2032   0.990       .  S
O2018      H2042   0.990       .  S
Zr2019     O2024   2.387       .  S
Zr2020     O2023   2.378   1_455  S
O2021      H2029   0.966       .  S
O2024      H2028   0.966       .  S
O2025      H2030   0.966       .  S
O2043     Zr2055   2.452   1_655  S
O2043      C2045   1.291       .  A
O2044     Zr2081   2.414       .  S
C2045      C2299   1.491       .  S
O2046     Zr2058   2.449       .  S
O2046      C2048   1.290       .  A
O2047     Zr2082   2.416   1_655  S
O2047      C2048   1.285       .  A
C2048      C2167   1.477       .  S
O2049     Zr2058   2.446   1_554  S
O2049      C2051   1.288       .  A
O2050      C2051   1.284       .  A
C2051      C2179   1.465       .  S
O2052     Zr2055   2.445       .  S
O2052      C2054   1.291       .  A
O2053     Zr2082   2.419   1_554  S
O2053      C2054   1.284       .  A
C2054      C2290   1.497       .  S
Zr2055     O2056   2.434   1_455  S
Zr2055     O2061   2.370   1_455  S
Zr2055     O2062   2.372   1_455  S
O2056      H2099   0.990       .  S
O2057      H2098   0.990       .  S
O2057      H2102   0.990       .  S
Zr2058     O2059   2.436   1_556  S
Zr2058     O2390   2.435       .  S
Zr2058     O2062   2.371   1_556  S
Zr2058     O2061   2.371   1_556  S
Zr2058     O2416   2.375       .  S
Zr2058     O2418   2.372       .  S
O2059      H2100   0.990       .  S
O2059      H2103   0.990       .  S
O2060     Zr2388   2.435       .  S
O2060      H2093   0.990       .  S
O2062     Zr2082   2.385   1_654  S
O2062      H2089   0.966       .  S
O2063     Zr2075   2.447       .  S
O2063      C2395   1.288       .  A
O2064      C2395   1.286   1_556  A
C2065      O2393   1.288       .  A
C2065      O2394   1.286       .  A
C2065      C2191   1.473       .  S
O2066     Zr2078   2.428       .  S
O2066      C2068   1.284       .  A
O2067     Zr2411   2.434       .  S
O2067      C2068   1.288       .  A
C2068      C2263   1.490       .  S
O2069     Zr2078   2.423       .  S
O2069      C2071   1.284       .  A
O2070     Zr2412   2.428       .  S
C2071      C2278   1.464       .  S
O2072     Zr2075   2.442       .  S
O2072      C2404   1.287       .  A
O2073     Zr2081   2.418       .  S
O2073      C2404   1.285       .  A
C2074      O2402   1.287       .  A
C2074      O2403   1.285       .  A
C2074      C2203   1.464       .  S
Zr2075     O2406   2.436   1_554  S
Zr2075     O2077   2.434       .  S
Zr2075     O2413   2.371   1_554  S
Zr2075     O2414   2.376   1_554  S
Zr2075     O2087   2.370       .  S
Zr2075     O2085   2.369       .  S
O2076     Zr2405   2.436       .  S
O2076      H2096   0.990       .  S
O2076      H2101   0.990       .  S
O2077      H2097   0.990       .  S
Zr2078     O2079   2.433       .  S
Zr2078     O2084   2.371       .  S
Zr2078     O2083   2.373       .  S
O2079      H2095   0.990       .  S
O2080      H2094   0.990       .  S
O2080      H2104   0.990       .  S
Zr2081     O2397   2.434   1_554  S
Zr2081     O2414   2.378   1_554  S
Zr2081     O2087   2.385       .  S
Zr2082     O2400   2.428       .  S
Zr2082     O2418   2.377   1_455  S
O2083     Zr2405   2.371       .  S
O2083      H2091   0.965       .  S
O2084     Zr2405   2.376       .  S
O2084     Zr2411   2.378       .  S
O2086     Zr2388   2.375       .  S
O2086      H2090   0.966       .  S
O2087      H2092   0.965       .  S
O2088     Zr2388   2.372       .  S
O2088     Zr2412   2.377   1_655  S
O2105     Zr2117   2.444       .  S
O2105      C2107   1.287       .  A
O2106      C2107   1.285       .  A
C2107      C2182   1.466       .  S
O2108     Zr2120   2.444       .  S
O2109     Zr2144   2.423       .  S
O2109      C2110   1.286       .  A
C2110      C2242   1.471       .  S
O2111     Zr2120   2.439   1_565  S
O2112     Zr2143   2.424   1_545  S
C2113      C2251   1.472       .  S
O2114     Zr2117   2.438       .  S
O2114      C2116   1.287       .  A
O2115     Zr2144   2.428   1_556  S
O2115      C2116   1.286   1_556  A
C2116      C2206   1.467       .  S
Zr2117     O2118   2.434       .  S
Zr2117     O2449   2.435   1_554  S
Zr2117     O2123   2.372       .  S
Zr2117     O2124   2.370       .  S
Zr2117     O2477   2.375   1_554  S
Zr2117     O2479   2.369   1_554  S
O2118      H2161   0.990       .  S
O2119     Zr2447   2.435       .  S
O2119      H2160   0.990       .  S
O2119      H2164   0.990       .  S
Zr2120     O2122   2.434   1_545  S
Zr2120     O2148   2.373   1_545  S
Zr2120     O2150   2.370   1_545  S
O2121      H2162   0.990       .  S
O2121      H2165   0.990       .  S
O2122      H2155   0.990       .  S
O2124     Zr2144   2.385       .  S
O2124      H2151   0.965       .  S
O2125     Zr2137   2.438       .  S
O2126     Zr2474   2.430       .  S
C2127      C2227   1.476       .  S
O2128     Zr2140   2.447   1_556  S
O2128      C2460   1.289   1_556  A
O2129     Zr2143   2.419       .  S
O2129      C2460   1.286       .  A
C2130      O2458   1.289       .  A
C2130      O2459   1.286       .  A
C2130      C2170   1.479       .  S
O2131     Zr2140   2.445       .  S
O2131      C2463   1.288       .  A
O2132      C2463   1.285       .  A
C2133      O2461   1.288       .  A
C2133      O2462   1.285       .  A
C2133      C2194   1.470       .  S
O2134     Zr2137   2.436       .  S
O2135     Zr2473   2.426       .  S
O2135      C2136   1.287       .  A
C2136      C2218   1.479   1_565  S
Zr2137     O2139   2.434       .  S
Zr2137     O2149   2.371       .  S
Zr2137     O2147   2.373       .  S
O2138      H2158   0.990       .  S
O2138      H2163   0.990       .  S
O2139      H2159   0.990       .  S
Zr2140     O2471   2.434   1_554  S
Zr2140     O2142   2.434       .  S
Zr2140     O2476   2.372   1_554  S
Zr2140     O2475   2.372   1_554  S
Zr2140     O2150   2.371       .  S
Zr2140     O2148   2.368       .  S
O2141     Zr2470   2.434       .  S
O2141      H2157   0.990       .  S
O2142      H2156   0.990       .  S
O2142      H2166   0.990       .  S
Zr2143     O2465   2.426   1_554  S
Zr2143     O2476   2.380   1_554  S
Zr2143     O2148   2.383       .  S
Zr2144     O2456   2.430   1_554  S
Zr2144     O2477   2.381   1_554  S
O2145     Zr2470   2.372       .  S
O2145      H2153   0.966       .  S
O2146     Zr2470   2.372       .  S
O2146     Zr2473   2.380       .  S
O2147     Zr2447   2.375       .  S
O2147     Zr2474   2.381       .  S
O2148      H2152   0.965       .  S
O2149     Zr2447   2.369       .  S
O2149      H2154   0.966       .  S
C2167      C2168   1.404   1_556  A
C2167      C2502   1.412       .  A
C2168      C2169   1.399       .  A
C2168      H2177   1.084       .  S
C2169      C2500   1.415   1_554  A
C2169      S2173   1.804       .  S
C2170      C2499   1.415       .  A
C2170      C2171   1.404       .  A
C2171      C2172   1.399       .  A
C2171      H2178   1.084       .  S
C2172      C2497   1.412       .  A
C2172      S2174   1.803       .  S
S2173      H2176   1.403       .  S
S2174      H2175   1.407       .  S
C2179      C2510   1.401   1_554  A
C2179      C2184   1.412       .  A
C2180      C2509   1.401       .  A
C2180      C2181   1.398       .  A
C2180      H2189   1.084       .  S
C2181      C2512   1.411       .  A
C2181      S2185   1.805       .  S
C2182      C2511   1.411   1_554  A
C2182      C2183   1.402       .  A
C2183      C2184   1.400       .  A
C2183      H2190   1.084       .  S
C2184      S2186   1.805       .  S
S2185      H2188   1.403       .  S
S2186      H2187   1.404       .  S
C2191      C2522   1.403       .  A
C2191      C2196   1.412       .  A
C2192      C2521   1.403       .  A
C2192      C2193   1.401       .  A
C2192      H2201   1.084       .  S
C2193      C2524   1.412       .  A
C2193      S2197   1.804       .  S
C2194      C2523   1.412       .  A
C2194      C2195   1.401       .  A
C2195      C2196   1.397       .  A
C2195      H2202   1.084       .  S
C2196      S2198   1.800       .  S
S2197      H2200   1.407       .  S
S2198      H2199   1.403       .  S
C2203      C2204   1.399       .  A
C2203      C2538   1.413       .  A
C2204      C2205   1.396       .  A
C2204      H2213   1.084       .  S
C2205      C2536   1.411       .  A
C2205      S2209   1.801       .  S
C2206      C2535   1.411   1_554  A
C2206      C2207   1.402       .  A
C2207      C2208   1.400       .  A
C2207      H2214   1.084       .  S
C2208      C2533   1.413       .  A
C2208      S2210   1.807       .  S
S2209      H2212   1.403       .  S
S2210      H2211   1.401       .  S
C2215      C2220   1.414       .  A
C2216      C2217   1.400       .  A
C2216      H2225   1.081       .  S
C2217      C2218   1.413   1_565  A
C2217      S2221   1.804       .  S
C2219      C2220   1.398       .  A
C2219      H2226   1.084       .  S
C2220      S2222   1.803       .  S
S2221      H2224   1.407       .  S
S2222      H2223   1.408       .  S
C2227      C2228   1.405   1_545  A
C2228      C2229   1.402       .  A
C2228      H2237   1.084       .  S
C2229      C2230   1.413       .  A
C2229      S2233   1.805       .  S
C2231      C2232   1.398       .  A
C2231      H2238   1.084       .  S
C2232      S2234   1.805       .  S
S2233      H2236   1.407       .  S
S2234      H2235   1.402       .  S
C2239      C2244   1.413       .  A
C2240      C2241   1.398       .  A
C2240      H2249   1.084       .  S
C2241      C2242   1.412       .  A
C2241      S2245   1.804       .  S
C2243      C2244   1.401       .  A
C2243      H2250   1.084       .  S
C2244      S2246   1.804       .  S
S2245      H2248   1.405       .  S
S2246      H2247   1.406       .  S
C2251      C2252   1.404       .  A
C2252      C2253   1.401       .  A
C2252      H2261   1.084       .  S
C2253      C2254   1.413       .  A
C2253      S2257   1.805       .  S
C2255      C2256   1.397       .  A
C2255      H2262   1.084       .  S
C2256      S2258   1.806       .  S
S2257      H2260   1.407       .  S
S2258      H2259   1.402       .  S
C2263      C2264   1.407       .  A
C2264      C2265   1.403       .  A
C2264      H2273   1.084       .  S
C2265      S2269   1.800       .  S
C2266      C2267   1.404   1_455  A
C2267      C2268   1.394       .  A
C2267      H2274   1.084       .  S
C2268      S2270   1.801       .  S
S2269      H2272   1.408       .  S
S2270      H2271   1.408   1_655  S
C2275      C2276   1.399       .  A
C2276      C2277   1.395       .  A
C2276      H2285   1.085       .  S
C2277      C2278   1.415       .  A
C2277      S2281   1.808       .  S
C2279      C2280   1.398       .  A
C2279      H2286   1.085       .  S
C2280      S2282   1.801       .  S
S2281      H2284   1.398       .  S
S2282      H2283   1.406       .  S
C2287      C2288   1.408       .  A
C2288      C2289   1.404       .  A
C2288      H2297   1.083       .  S
C2289      S2293   1.802       .  S
C2290      C2291   1.405   1_455  A
C2291      C2292   1.394       .  A
C2291      H2298   1.083       .  S
C2292      S2294   1.803       .  S
S2293      H2296   1.408       .  S
S2294      H2295   1.407       .  S
C2299      C2300   1.406       .  A
C2300      C2301   1.398       .  A
C2300      H2309   1.084       .  S
C2301      C2302   1.417       .  A
C2301      S2305   1.802       .  S
C2303      C2304   1.400       .  A
C2303      H2310   1.084       .  S
C2304      S2306   1.801       .  S
S2305      H2308   1.408       .  S
S2306      H2307   1.408       .  S
O2311     Zr2323   2.442       .  S
O2311      C2313   1.288       .  A
O2312      C2313   1.286       .  A
C2313      C2584   1.471       .  S
O2314     Zr2326   2.444       .  S
O2314      C2316   1.290       .  A
O2315      C2316   1.284       .  A
C2316      C2596   1.491       .  S
O2317     Zr2326   2.443   1_655  S
O2317      C2319   1.288       .  A
O2318     Zr2349   2.424       .  S
C2319      C2632   1.489       .  S
O2320     Zr2323   2.449       .  S
O2320      C2322   1.290       .  A
O2321     Zr2350   2.420   1_645  S
C2322      C2545   1.482       .  S
Zr2323     O2324   2.434       .  S
Zr2323     O2329   2.371       .  S
Zr2323     O2330   2.368       .  S
O2324      H2367   0.990       .  S
O2325      H2366   0.990       .  S
O2325      H2370   0.990       .  S
Zr2326     O2327   2.436   1_455  S
Zr2326     O2330   2.368   1_455  S
Zr2326     O2329   2.371   1_455  S
O2327      H2368   0.990       .  S
O2327      H2371   0.990       .  S
O2328      H2361   0.990       .  S
O2330      H2357   0.966       .  S
O2331     Zr2343   2.426       .  S
O2331      C2333   1.284       .  A
O2332     Zr2350   2.425   1_655  S
C2333      C2605   1.464       .  S
O2334     Zr2346   2.442       .  S
O2334      C2336   1.288       .  A
O2335     Zr2349   2.426       .  S
C2336      C2569   1.471       .  S
O2337     Zr2346   2.443       .  S
O2337      C2339   1.288       .  A
O2338      C2339   1.287       .  A
C2339      C2560   1.475       .  S
O2340     Zr2343   2.427       .  S
O2340      C2342   1.283       .  A
O2341      C2342   1.289       .  A
C2342      C2617   1.497       .  S
Zr2343     O2344   2.436       .  S
Zr2343     O2351   2.368       .  S
Zr2343     O2352   2.368       .  S
O2344      H2364   0.990       .  S
O2344      H2369   0.990       .  S
O2345      H2365   0.990       .  S
Zr2346     O2347   2.434       .  S
Zr2346     O2352   2.373       .  S
Zr2346     O2351   2.373       .  S
O2347      H2363   0.990       .  S
O2348      H2362   0.990       .  S
O2348      H2372   0.990       .  S
Zr2349     O2354   2.387       .  S
Zr2350     O2353   2.378   1_455  S
O2351      H2359   0.966       .  S
O2354      H2358   0.966       .  S
O2355      H2360   0.966       .  S
O2373     Zr2385   2.452   1_655  S
O2373      C2375   1.291       .  A
O2374     Zr2411   2.414       .  S
C2375      C2629   1.491       .  S
O2376     Zr2388   2.449       .  S
O2376      C2378   1.290       .  A
O2377     Zr2412   2.416   1_655  S
O2377      C2378   1.285       .  A
C2378      C2497   1.477       .  S
O2379     Zr2388   2.446       .  S
O2379      C2381   1.288       .  A
O2380      C2381   1.284       .  A
C2381      C2509   1.465       .  S
O2382     Zr2385   2.445       .  S
O2382      C2384   1.291       .  A
O2383     Zr2412   2.419       .  S
O2383      C2384   1.284       .  A
C2384      C2620   1.497       .  S
Zr2385     O2386   2.434   1_455  S
Zr2385     O2391   2.370   1_455  S
Zr2385     O2392   2.372   1_455  S
O2386      H2429   0.990       .  S
O2387      H2428   0.990       .  S
O2387      H2432   0.990       .  S
Zr2388     O2389   2.436       .  S
Zr2388     O2392   2.371       .  S
Zr2388     O2391   2.371       .  S
O2389      H2430   0.990       .  S
O2389      H2433   0.990       .  S
O2390      H2423   0.990       .  S
O2392     Zr2412   2.385   1_655  S
O2392      H2419   0.966       .  S
O2393     Zr2405   2.447       .  S
C2395      C2521   1.473       .  S
O2396     Zr2408   2.428       .  S
O2396      C2398   1.284       .  A
O2397      C2398   1.288       .  A
C2398      C2593   1.490       .  S
O2399     Zr2408   2.423       .  S
O2399      C2401   1.284       .  A
C2401      C2608   1.464       .  S
O2402     Zr2405   2.442       .  S
O2403     Zr2411   2.418       .  S
C2404      C2533   1.464       .  S
Zr2405     O2407   2.434       .  S
Zr2405     O2417   2.370       .  S
Zr2405     O2415   2.369       .  S
O2406      H2426   0.990       .  S
O2406      H2431   0.990       .  S
O2407      H2427   0.990       .  S
Zr2408     O2409   2.433       .  S
Zr2408     O2414   2.371       .  S
Zr2408     O2413   2.373       .  S
O2409      H2425   0.990       .  S
O2410      H2424   0.990       .  S
O2410      H2434   0.990       .  S
Zr2411     O2417   2.385       .  S
O2413      H2421   0.965       .  S
O2416      H2420   0.966       .  S
O2417      H2422   0.965       .  S
O2435     Zr2447   2.444       .  S
O2435      C2437   1.287       .  A
O2436      C2437   1.285       .  A
C2437      C2512   1.466       .  S
O2438     Zr2450   2.444       .  S
O2439     Zr2474   2.423       .  S
O2439      C2440   1.286       .  A
C2440      C2572   1.471       .  S
O2441     Zr2450   2.439   1_565  S
O2442     Zr2473   2.424   1_545  S
C2443      C2581   1.472       .  S
O2444     Zr2447   2.438       .  S
O2444      C2446   1.287       .  A
O2445     Zr2474   2.428       .  S
O2445      C2446   1.286       .  A
C2446      C2536   1.467       .  S
Zr2447     O2448   2.434       .  S
Zr2447     O2453   2.372       .  S
Zr2447     O2454   2.370       .  S
O2448      H2491   0.990       .  S
O2449      H2490   0.990       .  S
O2449      H2494   0.990       .  S
Zr2450     O2452   2.434   1_545  S
Zr2450     O2478   2.373   1_545  S
Zr2450     O2480   2.370   1_545  S
O2451      H2492   0.990       .  S
O2451      H2495   0.990       .  S
O2452      H2485   0.990       .  S
O2454     Zr2474   2.385       .  S
O2454      H2481   0.965       .  S
O2455     Zr2467   2.438       .  S
C2457      C2557   1.476       .  S
O2458     Zr2470   2.447       .  S
O2459     Zr2473   2.419       .  S
C2460      C2500   1.479   1_554  S
O2461     Zr2470   2.445       .  S
C2463      C2524   1.470       .  S
O2464     Zr2467   2.436       .  S
O2465      C2466   1.286       .  A
C2466      C2548   1.479   1_565  S
Zr2467     O2469   2.434       .  S
Zr2467     O2479   2.371       .  S
Zr2467     O2477   2.373       .  S
O2468      H2488   0.990       .  S
O2468      H2493   0.990       .  S
O2469      H2489   0.990       .  S
Zr2470     O2472   2.434       .  S
Zr2470     O2480   2.371       .  S
Zr2470     O2478   2.368       .  S
O2471      H2487   0.990       .  S
O2472      H2486   0.990       .  S
O2472      H2496   0.990       .  S
Zr2473     O2478   2.383       .  S
O2475      H2483   0.966       .  S
O2478      H2482   0.965       .  S
O2479      H2484   0.966       .  S
C2497      C2498   1.404       .  A
C2498      C2499   1.399       .  A
C2498      H2507   1.084       .  S
C2499      S2503   1.804       .  S
C2500      C2501   1.404       .  A
C2501      C2502   1.399       .  A
C2501      H2508   1.084       .  S
C2502      S2504   1.803       .  S
S2503      H2506   1.403       .  S
S2504      H2505   1.407       .  S
C2509      C2514   1.412       .  A
C2510      C2511   1.398       .  A
C2510      H2519   1.084       .  S
C2511      S2515   1.805       .  S
C2512      C2513   1.402       .  A
C2513      C2514   1.400       .  A
C2513      H2520   1.084       .  S
C2514      S2516   1.805       .  S
S2515      H2518   1.403       .  S
S2516      H2517   1.404       .  S
C2521      C2526   1.413   1_554  A
C2522      C2523   1.401       .  A
C2522      H2531   1.084       .  S
C2523      S2527   1.804       .  S
C2524      C2525   1.401   1_554  A
C2525      C2526   1.397       .  A
C2525      H2532   1.084       .  S
C2526      S2528   1.800       .  S
S2527      H2530   1.407       .  S
S2528      H2529   1.403       .  S
C2533      C2534   1.399   1_554  A
C2534      C2535   1.396       .  A
C2534      H2543   1.084       .  S
C2535      S2539   1.801       .  S
C2536      C2537   1.402       .  A
C2537      C2538   1.400       .  A
C2537      H2544   1.084       .  S
C2538      S2540   1.807       .  S
S2539      H2542   1.403       .  S
S2540      H2541   1.401       .  S
C2545      C2550   1.414       .  A
C2546      C2547   1.401       .  A
C2546      H2555   1.081       .  S
C2547      C2548   1.414   1_565  A
C2547      S2551   1.804       .  S
C2549      C2550   1.398       .  A
C2549      H2556   1.084       .  S
C2550      S2552   1.803       .  S
S2551      H2554   1.407       .  S
S2552      H2553   1.408       .  S
C2557      C2558   1.405   1_545  A
C2558      C2559   1.402       .  A
C2558      H2567   1.084       .  S
C2559      C2560   1.413       .  A
C2559      S2563   1.805       .  S
C2561      C2562   1.398       .  A
C2561      H2568   1.084       .  S
C2562      S2564   1.805       .  S
S2563      H2566   1.407       .  S
S2564      H2565   1.402       .  S
C2569      C2574   1.413       .  A
C2570      C2571   1.398       .  A
C2570      H2579   1.084       .  S
C2571      C2572   1.412       .  A
C2571      S2575   1.804       .  S
C2573      C2574   1.401       .  A
C2573      H2580   1.084       .  S
C2574      S2576   1.804       .  S
S2575      H2578   1.405       .  S
S2576      H2577   1.406       .  S
C2581      C2582   1.404       .  A
C2582      C2583   1.401       .  A
C2582      H2591   1.084       .  S
C2583      C2584   1.413       .  A
C2583      S2587   1.805       .  S
C2585      C2586   1.397       .  A
C2585      H2592   1.084       .  S
C2586      S2588   1.806       .  S
S2587      H2590   1.407       .  S
S2588      H2589   1.402       .  S
C2593      C2594   1.407       .  A
C2594      C2595   1.403       .  A
C2594      H2603   1.084       .  S
C2595      S2599   1.800       .  S
C2596      C2597   1.404   1_455  A
C2597      C2598   1.394       .  A
C2597      H2604   1.084       .  S
C2598      S2600   1.801       .  S
S2599      H2602   1.408       .  S
S2600      H2601   1.408   1_655  S
C2605      C2606   1.399       .  A
C2606      C2607   1.395       .  A
C2606      H2615   1.085       .  S
C2607      C2608   1.415       .  A
C2607      S2611   1.808       .  S
C2609      C2610   1.398       .  A
C2609      H2616   1.085       .  S
C2610      S2612   1.801       .  S
S2611      H2614   1.398       .  S
S2612      H2613   1.406       .  S
C2617      C2618   1.408       .  A
C2618      C2619   1.404       .  A
C2618      H2627   1.083       .  S
C2619      S2623   1.802       .  S
C2620      C2621   1.405   1_455  A
C2621      C2622   1.394       .  A
C2621      H2628   1.083       .  S
C2622      S2624   1.803       .  S
S2623      H2626   1.408       .  S
S2624      H2625   1.407       .  S
C2629      C2630   1.406       .  A
C2630      C2631   1.398       .  A
C2630      H2639   1.084       .  S
C2631      C2632   1.417       .  A
C2631      S2635   1.802       .  S
C2633      C2634   1.400       .  A
C2633      H2640   1.084       .  S
C2634      S2636   1.801       .  S
S2635      H2638   1.408       .  S
S2636      H2637   1.408       .  S
