geometry optimzed in LAMMPS
_audit_creation_date              2020-11-30 
_audit_creation_method            'lammps2cif' 
_symmetry_space_group_name_H-M    'P1' 
_symmetry_Int_Tables_number       1 
_symmetry_cell_setting            triclinic 
loop_ 
_symmetry_equiv_pos_as_xyz 
  x,y,z 
_cell_length_a                    30.39459711 
_cell_length_b                    43.16571752710497 
_cell_length_c                    39.604884068525784 
_cell_angle_alpha                 89.37058264634393 
_cell_angle_beta                  89.98538673396321 
_cell_angle_gamma                 89.94888561413106 
loop_ 
_atom_site_label 
_atom_site_type_symbol 
_atom_site_fract_x 
_atom_site_fract_y 
_atom_site_fract_z 
_atom_site_charge 
Zn1        Zn  0.06298262  0.12310009  0.99820171     1.49700
Zn2        Zn  0.14161523  0.15027823  0.03979561     1.49400
Zn3        Zn  0.15270330  0.08313934  0.50379914     1.49100
Zn4        Zn  0.14956397  0.14679060  0.46061567     1.49500
O5          O  0.12692631  0.12547753  0.00059384    -1.82100
O6          O  0.03326521  0.14375154  0.03744725    -0.72700
O7          O  0.17271813  0.12305103  0.07282057    -0.72500
O8          O  0.10450381  0.05060841  0.50158152    -0.72000
O9          O  0.08838130  0.16493557  0.06532904    -0.72700
O10         O  0.04324954  0.07880407  0.00001622    -0.72300
O11         O  0.18372987  0.07712240  0.04918267    -0.72900
O12         O  0.18705647  0.11809662  0.43431153    -0.72300
O13         O  0.18079262  0.18679244  0.02809040    -0.73000
O14         O  0.19487206  0.07470322  0.46462882    -0.72400
O15         O  0.18794772  0.18343008  0.47240676    -0.72900
O16         O  0.10087807  0.15964983  0.42894134    -0.72800
O17         O  0.04104181  0.14160451  0.45463249    -0.72600
C18         C  0.04757434  0.15907086  0.06241296     0.79200
C19         C  0.18707336  0.09537234  0.07419102     0.79700
C20         C  0.06267402  0.05267764  0.50094691     0.78600
C21         C  0.20306671  0.09114328  0.43843038     0.79000
C22         C  0.19699255  0.19649478  0.00024819     0.80200
C23         C  0.05954325  0.15491781  0.42952936     0.79200
Zn24       Zn  0.39763594  0.39718598  0.03777564     1.49700
Zn25       Zn  0.31571675  0.37341269  0.49734239     1.49400
Zn26       Zn  0.40111962  0.39692471  0.45805412     1.49100
Zn27       Zn  0.40433098  0.33166677  0.49887602     1.49500
O28         O  0.37987547  0.37441507  0.49787903    -1.82100
O29         O  0.34688255  0.41089923  0.06604528    -0.72700
O30         O  0.29196712  0.39383668  0.45523335    -0.72500
O31         O  0.44070440  0.43285924  0.47054565    -0.72000
O32         O  0.28899147  0.39343569  0.03835019    -0.72700
O33         O  0.43522228  0.43412257  0.02644523    -0.72300
O34         O  0.35094295  0.41183912  0.42848054    -0.72900
O35         O  0.44274301  0.32370033  0.45753477    -0.72300
O36         O  0.29451240  0.32939026  0.49824488    -0.73000
O37         O  0.43640357  0.36842193  0.42935480    -0.72400
O38         O  0.35458626  0.29994020  0.49865686    -0.72900
O39         O  0.44082882  0.32449097  0.04165611    -0.72800
O40         O  0.43230761  0.36948787  0.06790146    -0.72600
C41         C  0.30562071  0.40681976  0.06382132     0.79200
C42         C  0.30946351  0.40782660  0.43013087     0.79700
C43         C  0.45040995  0.44491457  0.49880990     0.78600
C44         C  0.45083220  0.34083983  0.43186274     0.79000
C45         C  0.31279286  0.30284781  0.49878408     0.80200
C46         C  0.44736113  0.34206346  0.06685302     0.79200
Zn47       Zn  0.34670643  0.14668800  0.21062283     1.48500
Zn48       Zn  0.43424563  0.12446644  0.24642316     1.49400
Zn49       Zn  0.35392339  0.14852260  0.28989226     1.49100
Zn50       Zn  0.34622765  0.08223474  0.25307350     1.49500
O51         O  0.37014927  0.12506874  0.25003850    -1.82100
O52         O  0.39378304  0.15850624  0.17708778    -0.72700
O53         O  0.46319855  0.14328072  0.28725313    -0.72500
O54         O  0.31689662  0.18630761  0.27874130    -0.72000
O55         O  0.45545640  0.14551858  0.20363615    -0.72700
O56         O  0.31240340  0.18470064  0.22291478    -0.72300
O57         O  0.40673250  0.16120194  0.31647873    -0.72900
O58         O  0.31368213  0.07514423  0.29766462    -0.72300
O59         O  0.45557085  0.08047948  0.24493477    -0.73000
O60         O  0.32066514  0.12121686  0.32176821    -0.72400
O61         O  0.39619177  0.05093806  0.25122061    -0.72900
O62         O  0.30386096  0.07375862  0.21411352    -0.72800
O63         O  0.30521058  0.11915947  0.18682705    -0.72600
C64         C  0.43555151  0.15670653  0.17793898     0.79200
C65         C  0.44779879  0.15643573  0.31335060     0.79700
C66         C  0.30292579  0.19743507  0.25080231     0.78600
C67         C  0.30745971  0.09327247  0.32242473     0.79000
C68         C  0.43770105  0.05390604  0.24765828     0.80200
C69         C  0.29124429  0.09157629  0.19011142     0.79200
Zn70       Zn  0.18820114  0.37647072  0.24900418     1.49700
Zn71       Zn  0.10001006  0.33425990  0.24875408     1.49400
Zn72       Zn  0.10398727  0.39879884  0.28916685     1.49100
Zn73       Zn  0.10394351  0.39992379  0.20924783     1.49500
O74         O  0.12391165  0.37703470  0.24908581    -1.82100
O75         O  0.21024894  0.33259729  0.25130521    -0.72700
O76         O  0.06387295  0.32518725  0.29132554    -0.72500
O77         O  0.15465530  0.41349608  0.31778829    -0.72000
O78         O  0.15022882  0.30328546  0.24761845    -0.72700
O79         O  0.21339666  0.39759383  0.28970299    -0.72300
O80         O  0.07099493  0.36955041  0.31895091    -0.72900
O81         O  0.06787414  0.43737383  0.22130838    -0.72300
O82         O  0.06214542  0.32693402  0.20713961    -0.73000
O83         O  0.06351483  0.43466180  0.27732349    -0.72400
O84         O  0.06718935  0.37250251  0.18053958    -0.72900
O85         O  0.15362981  0.41268245  0.17899925    -0.72800
O86         O  0.21271862  0.39543197  0.20609431    -0.72600
C87         C  0.19187678  0.30618442  0.24971595     0.79200
C88         C  0.05705408  0.34186891  0.31719223     0.79700
C89         C  0.19619184  0.41035703  0.31535916     0.78600
C90         C  0.05333461  0.44748401  0.24925270     0.79000
C91         C  0.05348109  0.34472024  0.18212047     0.80200
C92         C  0.19494384  0.40834108  0.18041249     0.79200
C93         C  0.00597809  0.02649922  0.22871859     0.25700
C94         C  0.46632201  0.02609513  0.24716146    -0.22500
C95         C  0.45543422  0.49940544  0.26615315     0.20600
C96         C  0.48416412  0.47401647  0.26733005     0.25600
C97         C  0.02367075  0.47455306  0.24888752    -0.22400
C98         C  0.03410228  0.00084607  0.22930677     0.20500
F99         F  0.07215214  0.00198775  0.21135683    -0.12400
F100        F  0.01734267  0.05161479  0.20969868    -0.14700
F101        F  0.47291164  0.44858873  0.28587692    -0.14700
F102        F  0.41755631  0.49815265  0.28429702    -0.12400
C103        C  0.25127450  0.27398084  0.27583982     0.25700
C104        C  0.21982845  0.27830765  0.25023262    -0.22500
C105        C  0.21608815  0.25624684  0.22466259     0.20600
C106        C  0.24353229  0.23021439  0.22457223     0.25600
C107        C  0.27459717  0.22542559  0.25057686    -0.22400
C108        C  0.27803215  0.24756796  0.27630143     0.20500
F109        F  0.30794387  0.24404463  0.30151394    -0.12400
F110        F  0.25556809  0.29514271  0.30074194    -0.14700
F111        F  0.23915672  0.20947126  0.19926124    -0.14700
F112        F  0.18671188  0.26040852  0.19918038    -0.12400
C113        C  0.02419997  0.33015978  0.40734299     0.25700
C114        C  0.47827695  0.32957670  0.40405009    -0.22500
C115        C  0.45946021  0.32594251  0.37191746     0.20600
C116        C  0.48612797  0.32577892  0.34308147     0.25600
C117        C  0.03169247  0.33003468  0.34617477    -0.22400
C118        C  0.05078176  0.33066474  0.37850264     0.20500
F119        F  0.09487345  0.33459806  0.38196563    -0.12400
F120        F  0.04296410  0.33382412  0.43815060    -0.14700
F121        F  0.46706563  0.32520771  0.31209795    -0.14700
F122        F  0.41504451  0.32544486  0.36830898    -0.12400
C123        C  0.45469365  0.33090981  0.12808386     0.25700
C124        C  0.47390098  0.33169243  0.09577530    -0.22500
C125        C  0.01982415  0.33070547  0.09266302     0.20600
C126        C  0.04626934  0.33201485  0.12151364     0.25600
C127        C  0.02699448  0.33369646  0.15371334    -0.22400
C128        C  0.48116562  0.33162153  0.15696548     0.20500
F129        F  0.46198333  0.33372078  0.18782306    -0.12400
F130        F  0.41027878  0.33226473  0.13152208    -0.14700
F131        F  0.09058389  0.33433691  0.11792979    -0.14700
F132        F  0.03893409  0.33215436  0.06169047    -0.12400
C133        C  0.20734949  0.42010421  0.37717542     0.25700
C134        C  0.22488375  0.41872795  0.34426199    -0.22500
C135        C  0.27089495  0.42030283  0.34021468     0.20600
C136        C  0.29871553  0.41960098  0.36837300     0.25600
C137        C  0.28108875  0.41718736  0.40121232    -0.22400
C138        C  0.23515819  0.41928696  0.40530075     0.20500
F139        F  0.21685027  0.41872341  0.43658695    -0.12400
F140        F  0.16321106  0.41950315  0.38246006    -0.14700
F141        F  0.34285409  0.41861106  0.36317303    -0.14700
F142        F  0.28920919  0.42060497  0.30893299    -0.12400
C143        C  0.29523982  0.41891007  0.12518808     0.25700
C144        C  0.27699112  0.41521554  0.09271566    -0.22500
C145        C  0.23088837  0.41528805  0.08929386     0.20600
C146        C  0.20385028  0.41574012  0.11786122     0.25600
C147        C  0.22239244  0.41593504  0.15050066    -0.22400
C148        C  0.26820875  0.41912510  0.15373229     0.20500
F149        F  0.28717354  0.42090248  0.18469260    -0.12400
F150        F  0.33947918  0.41990626  0.12980691    -0.14700
F151        F  0.15967074  0.41339779  0.11345669    -0.14700
F152        F  0.21181603  0.41322080  0.05839238    -0.12400
C153        C  0.48712542  0.16780710  0.40293158     0.25700
C154        C  0.03259391  0.16282556  0.39953351    -0.22500
C155        C  0.05081554  0.16118001  0.36690899     0.20600
C156        C  0.02353882  0.16143787  0.33844712     0.25600
C157        C  0.47749919  0.16365432  0.34202091    -0.22400
C158        C  0.45988947  0.16841453  0.37454821     0.20500
F159        F  0.41586005  0.17130720  0.37944657    -0.12400
F160        F  0.46858636  0.17058751  0.43396098    -0.14700
F161        F  0.04216980  0.15773112  0.30758666    -0.14700
F162        F  0.09466504  0.15665510  0.36254341    -0.12400
C163        C  0.44382688  0.16173073  0.11510334     0.25700
C164        C  0.46154838  0.16553484  0.14764796    -0.22500
C165        C  0.00605227  0.17385164  0.15076159     0.20600
C166        C  0.03341437  0.17490950  0.12237468     0.25600
C167        C  0.01687382  0.16726354  0.09022616    -0.22400
C168        C  0.47121580  0.16251988  0.08669661     0.20500
F169        F  0.45328994  0.15665795  0.05601752    -0.12400
F170        F  0.40070655  0.15453288  0.11086740    -0.14700
F171        F  0.07677600  0.18108565  0.12699882    -0.14700
F172        F  0.02368415  0.17951921  0.18158230    -0.12400
C173        C  0.21485159  0.07108147  0.38067521     0.25700
C174        C  0.23260786  0.08007913  0.41185632    -0.22500
C175        C  0.27744011  0.08730817  0.41402701     0.20600
C176        C  0.30315149  0.08871431  0.38480755     0.25600
C177        C  0.28441699  0.08256850  0.35311041    -0.22400
C178        C  0.24082827  0.07196196  0.35141550     0.20500
F179        F  0.22205451  0.06594200  0.32108702    -0.12400
F180        F  0.17132730  0.06446023  0.37806437    -0.14700
F181        F  0.34549172  0.09851578  0.38706284    -0.14700
F182        F  0.29502760  0.09641069  0.44382863    -0.12400
C183        C  0.21684869  0.09418825  0.16608430     0.25700
C184        C  0.25916526  0.08133631  0.16501151    -0.22500
C185        C  0.27391714  0.06729787  0.13523620     0.20600
C186        C  0.24830109  0.06894085  0.10580966     0.25600
C187        C  0.20820029  0.08518674  0.10596956    -0.22400
C188        C  0.19150010  0.09610740  0.13679714     0.20500
F189        F  0.15193945  0.11074204  0.13801252    -0.12400
F190        F  0.20201270  0.10780198  0.19468345    -0.14700
F191        F  0.26485786  0.05776436  0.07653037    -0.14700
F192        F  0.31504423  0.05510622  0.13371985    -0.12400
C193        C  0.04605112  0.49903054  0.48091382     0.25700
C194        C  0.03551046  0.02434019  0.50144948    -0.22500
C195        C  0.49755126  0.02297687  0.02169169     0.20600
C196        C  0.47033779  0.99690576  0.02120120     0.25600
C197        C  0.47990161  0.47206094  0.49975907    -0.22400
C198        C  0.01809516  0.47325983  0.47970553     0.20500
F199        F  0.02873624  0.44923640  0.45940921    -0.12400
F200        F  0.08260350  0.49969272  0.46120780    -0.14700
F201        F  0.43385923  0.99633015  0.04100550    -0.14700
F202        F  0.48706487  0.04680461  0.04232266    -0.12400
C203        C  0.21692097  0.24976295  0.01917771     0.25700
C204        C  0.22714337  0.22336567  0.50026103    -0.22500
C205        C  0.26640425  0.22287649  0.48140560     0.20600
C206        C  0.29506371  0.24832514  0.48161275     0.25600
C207        C  0.28429194  0.27503124  0.49991887    -0.22400
C208        C  0.24489620  0.27548456  0.01866568     0.20500
F209        F  0.23374122  0.30073631  0.03696108    -0.12400
F210        F  0.17915198  0.25099404  0.03743482    -0.14700
F211        F  0.33265870  0.24718988  0.46313808    -0.14700
F212        F  0.27741154  0.19749198  0.46328649    -0.12400
Zn213      Zn  0.06298383  0.12308612  0.49820571     1.49700
Zn214      Zn  0.14162911  0.15026003  0.53979297     1.49400
Zn215      Zn  0.15270331  0.08315547  0.00380240     1.49100
Zn216      Zn  0.14957111  0.14680208  0.96062023     1.49500
O217        O  0.12692829  0.12546260  0.50059166    -1.82100
O218        O  0.03327540  0.14374561  0.53745060    -0.72700
O219        O  0.17274068  0.12303389  0.57281405    -0.72500
O220        O  0.10450667  0.05062447  0.00157033    -0.72000
O221        O  0.08840100  0.16492078  0.56532997    -0.72700
O222        O  0.04324912  0.07879026  0.50002868    -0.72300
O223        O  0.18375656  0.07710820  0.54917091    -0.72900
O224        O  0.18706200  0.11810797  0.93431679    -0.72300
O225        O  0.18081005  0.18677063  0.52808575    -0.73000
O226        O  0.19489149  0.07472090  0.96464206    -0.72400
O227        O  0.18796029  0.18343585  0.97241382    -0.72900
O228        O  0.10089112  0.15966849  0.92894555    -0.72800
O229        O  0.04104841  0.14162601  0.95463047    -0.72600
C230        C  0.04759151  0.15906300  0.56241525     0.79200
C231        C  0.18710509  0.09535751  0.57417955     0.79700
C232        C  0.06267706  0.05269240  0.00093236     0.78600
C233        C  0.20308131  0.09115806  0.93844052     0.79000
C234        C  0.19699644  0.19648189  0.50024258     0.80200
C235        C  0.05955532  0.15494075  0.92953062     0.79200
Zn236      Zn  0.39761319  0.39717987  0.53778034     1.49700
Zn237      Zn  0.31573602  0.37342836  0.99733472     1.49400
Zn238      Zn  0.40114542  0.39692538  0.95804967     1.49100
Zn239      Zn  0.40433198  0.33166770  0.99887605     1.49500
O240        O  0.37989364  0.37442105  0.99787515    -1.82100
O241        O  0.34685737  0.41089599  0.56604323    -0.72700
O242        O  0.29199231  0.39385846  0.95522856    -0.72500
O243        O  0.44072783  0.43286148  0.97053851    -0.72000
O244        O  0.28896676  0.39342480  0.53835343    -0.72700
O245        O  0.43520115  0.43411544  0.52645292    -0.72300
O246        O  0.35097576  0.41183777  0.92846805    -0.72900
O247        O  0.44273946  0.32369107  0.95753502    -0.72300
O248        O  0.29451771  0.32941011  0.99822524    -0.73000
O249        O  0.43642941  0.36841708  0.92935917    -0.72400
O250        O  0.35457772  0.29994906  0.99866565    -0.72900
O251        O  0.44082736  0.32449224  0.54165929    -0.72800
O252        O  0.43228114  0.36948330  0.56791123    -0.72600
C253        C  0.30559621  0.40681459  0.56382102     0.79200
C254        C  0.30949437  0.40783683  0.93012113     0.79700
C255        C  0.45043118  0.44492030  0.99880136     0.78600
C256        C  0.45084299  0.34083107  0.93186601     0.79000
C257        C  0.31278513  0.30286333  0.99877823     0.80200
C258        C  0.44734649  0.34206216  0.56686057     0.79200
Zn259      Zn  0.34673220  0.14669744  0.71062641     1.48500
Zn260      Zn  0.43426931  0.12447512  0.74643054     1.49400
Zn261      Zn  0.35394766  0.14853506  0.78989718     1.49100
Zn262      Zn  0.34624543  0.08224714  0.75308125     1.49500
O263        O  0.37017237  0.12507926  0.75004428    -1.82100
O264        O  0.39381167  0.15852328  0.67709857    -0.72700
O265        O  0.46322151  0.14329654  0.78725645    -0.72500
O266        O  0.31691542  0.18631543  0.77874405    -0.72000
O267        O  0.45548328  0.14552213  0.70364140    -0.72700
O268        O  0.31241685  0.18470493  0.72291779    -0.72300
O269        O  0.40675561  0.16122302  0.81647811    -0.72900
O270        O  0.31369183  0.07516278  0.79767136    -0.72300
O271        O  0.45559135  0.08048693  0.74495087    -0.73000
O272        O  0.32069477  0.12123181  0.82177946    -0.72400
O273        O  0.39620905  0.05094883  0.75123915    -0.72900
O274        O  0.30389053  0.07376809  0.71411194    -0.72800
O275        O  0.30525393  0.11916455  0.68681728    -0.72600
C276        C  0.43557959  0.15671686  0.67794724     0.79200
C277        C  0.44782163  0.15645728  0.81335057     0.79700
C278        C  0.30293986  0.19743993  0.75080546     0.78600
C279        C  0.30747933  0.09328977  0.82243422     0.79000
C280        C  0.43771891  0.05391459  0.74767816     0.80200
C281        C  0.29128747  0.09158142  0.69010146     0.79200
Zn282      Zn  0.18820344  0.37647043  0.74900359     1.49700
Zn283      Zn  0.10001599  0.33425858  0.74875853     1.49400
Zn284      Zn  0.10399878  0.39879701  0.78917716     1.49100
Zn285      Zn  0.10393642  0.39992345  0.70925727     1.49500
O286        O  0.12391437  0.37703393  0.74909217    -1.82100
O287        O  0.21025454  0.33259807  0.75130371    -0.72700
O288        O  0.06388241  0.32518681  0.79133016    -0.72500
O289        O  0.15467444  0.41349416  0.81779233    -0.72000
O290        O  0.15023550  0.30328461  0.74762288    -0.72700
O291        O  0.21340870  0.39759432  0.78969737    -0.72300
O292        O  0.07100911  0.36954653  0.81896223    -0.72900
O293        O  0.06787110  0.43737324  0.72132391    -0.72300
O294        O  0.06214737  0.32693176  0.70714522    -0.73000
O295        O  0.06352585  0.43466251  0.77733976    -0.72400
O296        O  0.06717712  0.37250350  0.68055062    -0.72900
O297        O  0.15361630  0.41268537  0.67900451    -0.72800
O298        O  0.21270976  0.39543342  0.70609250    -0.72600
C299        C  0.19188326  0.30618453  0.74971775     0.79200
C300        C  0.05706582  0.34186578  0.81719928     0.79700
C301        C  0.19621075  0.41035703  0.81535627     0.78600
C302        C  0.05334012  0.44748490  0.74927007     0.79000
C303        C  0.05347406  0.34471980  0.68212940     0.80200
C304        C  0.19493055  0.40834458  0.68041378     0.79200
C305        C  0.00600015  0.02650648  0.72874271     0.25700
C306        C  0.46633706  0.02610224  0.74718412    -0.22500
C307        C  0.45544746  0.49941426  0.76617799     0.20600
C308        C  0.48417332  0.47402269  0.76735375     0.25600
C309        C  0.02368181  0.47455697  0.74890821    -0.22400
C310        C  0.03411868  0.00085033  0.72932854     0.20500
F311        F  0.07216777  0.00198866  0.71137760    -0.12400
F312        F  0.01736988  0.05162178  0.70972394    -0.14700
F313        F  0.47291898  0.44859634  0.78590225    -0.14700
F314        F  0.41757133  0.49816528  0.78432435    -0.12400
C315        C  0.25128672  0.27398518  0.77583995     0.25700
C316        C  0.21983640  0.27830866  0.75023540    -0.22500
C317        C  0.21609185  0.25624456  0.72466885     0.20600
C318        C  0.24353722  0.23021288  0.72457911     0.25600
C319        C  0.27460757  0.22542820  0.75058024    -0.22400
C320        C  0.27804594  0.24757324  0.77630209     0.20500
F321        F  0.30796158  0.24405290  0.80151219    -0.12400
F322        F  0.25558339  0.29514958  0.80073935    -0.14700
F323        F  0.23915702  0.20946599  0.69927211    -0.14700
F324        F  0.18671016  0.26040238  0.69918978    -0.12400
C325        C  0.02420317  0.33013192  0.90734533     0.25700
C326        C  0.47828541  0.32956417  0.90405454    -0.22500
C327        C  0.45946966  0.32594041  0.87192016     0.20600
C328        C  0.48613859  0.32578132  0.84308523     0.25600
C329        C  0.03169863  0.33002916  0.84617724    -0.22400
C330        C  0.05078704  0.33064128  0.87850602     0.20500
F331        F  0.09488062  0.33456171  0.88197219    -0.12400
F332        F  0.04296712  0.33377891  0.93815565    -0.14700
F333        F  0.46707758  0.32522223  0.81210074    -0.14700
F334        F  0.41505406  0.32545064  0.86830968    -0.12400
C335        C  0.45467866  0.33091738  0.62809445     0.25700
C336        C  0.47388541  0.33169291  0.59578539    -0.22500
C337        C  0.01980951  0.33070193  0.59267315     0.20600
C338        C  0.04625629  0.33201080  0.62152334     0.25600
C339        C  0.02698351  0.33369686  0.65372335    -0.22400
C340        C  0.48115148  0.33162836  0.65697601     0.20500
F341        F  0.46197017  0.33373377  0.68783333    -0.12400
F342        F  0.41026424  0.33227817  0.63153309    -0.14700
F343        F  0.09057124  0.33432779  0.61793830    -0.14700
F344        F  0.03891878  0.33214586  0.56170026    -0.12400
C345        C  0.20738162  0.42012383  0.87716764     0.25700
C346        C  0.22491097  0.41873020  0.84425377    -0.22500
C347        C  0.27092297  0.42029113  0.84020277     0.20600
C348        C  0.29874651  0.41959194  0.86835938     0.25600
C349        C  0.28112226  0.41719619  0.90120071    -0.22400
C350        C  0.23519337  0.41931009  0.90529119     0.20500
F351        F  0.21688905  0.41876359  0.93657874    -0.12400
F352        F  0.16324352  0.41953762  0.88245590    -0.14700
F353        F  0.34288392  0.41858644  0.86315709    -0.14700
F354        F  0.28923448  0.42057643  0.80892015    -0.12400
C355        C  0.29522038  0.41891012  0.62518558     0.25700
C356        C  0.27696842  0.41521481  0.59271432    -0.22500
C357        C  0.23086563  0.41529201  0.58929404     0.20600
C358        C  0.20382957  0.41574915  0.61786256     0.25600
C359        C  0.22237508  0.41594138  0.65050105    -0.22400
C360        C  0.26819179  0.41912870  0.65373056     0.20500
F361        F  0.28715959  0.42090578  0.68468990    -0.12400
F362        F  0.33946014  0.41990154  0.62980282    -0.14700
F363        F  0.15964879  0.41341431  0.61346051    -0.14700
F364        F  0.21179106  0.41322435  0.55839336    -0.12400
C365        C  0.48714618  0.16784360  0.90292839     0.25700
C366        C  0.03261139  0.16285459  0.89953439    -0.22500
C367        C  0.05083557  0.16120736  0.86691081     0.20600
C368        C  0.02356101  0.16146631  0.83844803     0.25600
C369        C  0.47752211  0.16368216  0.84201852    -0.22400
C370        C  0.45991195  0.16845145  0.87454415     0.20500
F371        F  0.41588332  0.17135246  0.87944042    -0.12400
F372        F  0.46860696  0.17063134  0.93395687    -0.14700
F373        F  0.04219352  0.15775699  0.80758841    -0.14700
F374        F  0.09468460  0.15667840  0.86254741    -0.12400
C375        C  0.44384901  0.16174114  0.61511201     0.25700
C376        C  0.46157488  0.16554365  0.64765537    -0.22500
C377        C  0.00608313  0.17385712  0.65076484     0.20600
C378        C  0.03344240  0.17490918  0.62237614     0.25600
C379        C  0.01689650  0.16726237  0.59022952    -0.22400
C380        C  0.47123524  0.16252491  0.58670392     0.20500
F381        F  0.45330487  0.15666340  0.55602627    -0.12400
F382        F  0.40072616  0.15454895  0.61087882    -0.14700
F383        F  0.07680618  0.18108053  0.62699699    -0.14700
F384        F  0.02371961  0.17952455  0.68158407    -0.12400
C385        C  0.21486399  0.07110648  0.88068215     0.25700
C386        C  0.23262258  0.08009419  0.91186584    -0.22500
C387        C  0.27745713  0.08731667  0.91403828     0.20600
C388        C  0.30316897  0.08872535  0.88481845     0.25600
C389        C  0.28443281  0.08258777  0.85311967    -0.22400
C390        C  0.24084038  0.07198947  0.85142251     0.20500
F391        F  0.22206332  0.06598068  0.82109254    -0.12400
F392        F  0.17133753  0.06449294  0.87806938    -0.14700
F393        F  0.34551221  0.09852001  0.88707601    -0.14700
F394        F  0.29504743  0.09641012  0.94384234    -0.12400
C395        C  0.21688936  0.09416226  0.66607147     0.25700
C396        C  0.25922192  0.08133684  0.66499264    -0.22500
C397        C  0.27399214  0.06732160  0.63520907     0.20600
C398        C  0.24837207  0.06895791  0.60578393     0.25600
C399        C  0.20824777  0.08517453  0.60595297    -0.22400
C400        C  0.19153650  0.09607500  0.63678558     0.20500
F401        F  0.15195755  0.11068450  0.63800762    -0.12400
F402        F  0.20203757  0.10775721  0.69467650    -0.14700
F403        F  0.26494321  0.05780524  0.57649828    -0.14700
F404        F  0.31513563  0.05515822  0.63368556    -0.12400
C405        C  0.04604188  0.49905687  0.98087561     0.25700
C406        C  0.03551685  0.02435430  0.00143203    -0.22500
C407        C  0.49752225  0.02297584  0.52168782     0.20600
C408        C  0.47030350  0.99690744  0.52119367     0.25600
C409        C  0.47991909  0.47206960  0.99974754    -0.22400
C410        C  0.01809122  0.47328312  0.97967049     0.20500
F411        F  0.02871723  0.44927138  0.95935349    -0.12400
F412        F  0.08257243  0.49973417  0.96114610    -0.14700
F413        F  0.43380320  0.99634406  0.54097462    -0.14700
F414        F  0.48701856  0.04681341  0.54230024    -0.12400
C415        C  0.21703650  0.24969505  0.51929964     0.25700
C416        C  0.22713307  0.22337875  0.00026462    -0.22500
C417        C  0.26648623  0.22283672  0.98152767     0.20600
C418        C  0.29513896  0.24828913  0.98172999     0.25600
C419        C  0.28427113  0.27505026  0.99991147    -0.22400
C420        C  0.24501573  0.27541481  0.51879277     0.20500
F421        F  0.23396542  0.30061502  0.53720826    -0.12400
F422        F  0.17936373  0.25087774  0.53767763    -0.14700
F423        F  0.33282756  0.24709872  0.96337260    -0.14700
F424        F  0.27758698  0.19739740  0.96353226    -0.12400
Zn425      Zn  0.06298235  0.62310006  0.99820207     1.49700
Zn426      Zn  0.14161501  0.65027819  0.03979602     1.49400
Zn427      Zn  0.15270337  0.58313883  0.50379941     1.49100
Zn428      Zn  0.14956470  0.64679003  0.46061569     1.49500
O429        O  0.12692599  0.62547773  0.00059417    -1.82100
O430        O  0.03326505  0.64375144  0.03744754    -0.72700
O431        O  0.17271767  0.62305102  0.07282116    -0.72500
O432        O  0.10450384  0.55060809  0.50158169    -0.72000
O433        O  0.08838102  0.66493569  0.06532924    -0.72700
O434        O  0.04324955  0.57880398  0.00001670    -0.72300
O435        O  0.18373016  0.57712263  0.04918294    -0.72900
O436        O  0.18705735  0.61809590  0.43431199    -0.72300
O437        O  0.18079292  0.68679213  0.02809086    -0.73000
O438        O  0.19487256  0.57470254  0.46462940    -0.72400
O439        O  0.18794853  0.68342968  0.47240670    -0.72900
O440        O  0.10087903  0.65964920  0.42894119    -0.72800
O441        O  0.04104239  0.64160427  0.45463217    -0.72600
C442        C  0.04757400  0.65907094  0.06241313     0.79200
C443        C  0.18707333  0.59537249  0.07419149     0.79700
C444        C  0.06267404  0.55267718  0.50094687     0.78600
C445        C  0.20306755  0.59114253  0.43843102     0.79000
C446        C  0.19699218  0.69649493  0.00024856     0.80200
C447        C  0.05954413  0.65491750  0.42952911     0.79200
Zn448      Zn  0.39763574  0.89718564  0.03777606     1.49700
Zn449      Zn  0.31571715  0.87341270  0.49734249     1.49400
Zn450      Zn  0.40112007  0.89692458  0.45805432     1.49100
Zn451      Zn  0.40433107  0.83166661  0.49887624     1.49500
O452        O  0.37987593  0.87441493  0.49787919    -1.82100
O453        O  0.34688241  0.91089885  0.06604587    -0.72700
O454        O  0.29196756  0.89383682  0.45523359    -0.72500
O455        O  0.44070511  0.93285892  0.47054600    -0.72000
O456        O  0.28899108  0.89343585  0.03835068    -0.72700
O457        O  0.43522197  0.93412235  0.02644552    -0.72300
O458        O  0.35094345  0.91183914  0.42848075    -0.72900
O459        O  0.44274285  0.82370008  0.45753497    -0.72300
O460        O  0.29451246  0.82939035  0.49824467    -0.73000
O461        O  0.43640362  0.86842168  0.42935489    -0.72400
O462        O  0.35458613  0.79994019  0.49865712    -0.72900
O463        O  0.44082879  0.82449065  0.04165601    -0.72800
O464        O  0.43230785  0.86948748  0.06790156    -0.72600
C465        C  0.30562031  0.90681971  0.06382181     0.79200
C466        C  0.30946388  0.90782666  0.43013107     0.79700
C467        C  0.45041055  0.94491425  0.49881034     0.78600
C468        C  0.45083199  0.84083953  0.43186281     0.79000
C469        C  0.31279271  0.80284789  0.49878415     0.80200
C470        C  0.44736142  0.84206306  0.06685282     0.79200
Zn471      Zn  0.34670650  0.64668839  0.21062359     1.48500
Zn472      Zn  0.43424568  0.62446675  0.24642382     1.49400
Zn473      Zn  0.35392353  0.64852275  0.28989311     1.49100
Zn474      Zn  0.34622788  0.58223496  0.25307401     1.49500
O475        O  0.37014924  0.62506904  0.25003919    -1.82100
O476        O  0.39378316  0.65850680  0.17708842    -0.72700
O477        O  0.46319869  0.64328128  0.28725359    -0.72500
O478        O  0.31689617  0.68630756  0.27874229    -0.72000
O479        O  0.45545628  0.64551876  0.20363683    -0.72700
O480        O  0.31240347  0.68470093  0.22291572    -0.72300
O481        O  0.40673270  0.66120250  0.31647929    -0.72900
O482        O  0.31368266  0.57514422  0.29766515    -0.72300
O483        O  0.45557106  0.58047979  0.24493561    -0.73000
O484        O  0.32066593  0.62121670  0.32176907    -0.72400
O485        O  0.39619203  0.55093833  0.25122095    -0.72900
O486        O  0.30386111  0.57375896  0.21411403    -0.72800
O487        O  0.30521061  0.61915994  0.18682777    -0.72600
C488        C  0.43555151  0.65670691  0.17793958     0.79200
C489        C  0.44779914  0.65643636  0.31335093     0.79700
C490        C  0.30292551  0.69743516  0.25080326     0.78600
C491        C  0.30746052  0.59327215  0.32242539     0.79000
C492        C  0.43770134  0.55390636  0.24765883     0.80200
C493        C  0.29124438  0.59157674  0.19011205     0.79200
Zn494      Zn  0.18820088  0.87647059  0.24900458     1.49700
Zn495      Zn  0.10000958  0.83425991  0.24875421     1.49400
Zn496      Zn  0.10398702  0.89879867  0.28916740     1.49100
Zn497      Zn  0.10394341  0.89992396  0.20924831     1.49500
O498        O  0.12391151  0.87703468  0.24908631    -1.82100
O499        O  0.21024845  0.83259713  0.25130573    -0.72700
O500        O  0.06387193  0.82518721  0.29132548    -0.72500
O501        O  0.15465524  0.91349575  0.31778900    -0.72000
O502        O  0.15022831  0.80328532  0.24761889    -0.72700
O503        O  0.21339654  0.89759372  0.28970336    -0.72300
O504        O  0.07099430  0.86955016  0.31895119    -0.72900
O505        O  0.06787389  0.93737386  0.22130897    -0.72300
O506        O  0.06214530  0.82693426  0.20713949    -0.73000
O507        O  0.06351473  0.93466192  0.27732414    -0.72400
O508        O  0.06718957  0.87250286  0.18053977    -0.72900
O509        O  0.15362981  0.91268289  0.17899992    -0.72800
O510        O  0.21271846  0.89543174  0.20609469    -0.72600
C511        C  0.19187610  0.80618423  0.24971657     0.79200
C512        C  0.05705307  0.84186882  0.31719225     0.79700
C513        C  0.19619177  0.91035680  0.31535972     0.78600
C514        C  0.05333457  0.94748413  0.24925328     0.79000
C515        C  0.05348134  0.84472055  0.18212034     0.80200
C516        C  0.19494407  0.90834118  0.18041314     0.79200
C517        C  0.00597792  0.52649919  0.22871797     0.25700
C518        C  0.46632231  0.52609545  0.24716183    -0.22500
C519        C  0.45543347  0.99940501  0.26615259     0.20600
C520        C  0.48416337  0.97401604  0.26732959     0.25600
C521        C  0.02367076  0.97455316  0.24888815    -0.22400
C522        C  0.03410191  0.50084587  0.22930581     0.20500
F523        F  0.07215142  0.50198747  0.21135539    -0.12400
F524        F  0.01734209  0.55161473  0.20969786    -0.14700
F525        F  0.47291061  0.94858821  0.28587636    -0.14700
F526        F  0.41755527  0.99815210  0.28429601    -0.12400
C527        C  0.25127339  0.77398057  0.27584084     0.25700
C528        C  0.21982774  0.77830747  0.25023346    -0.22500
C529        C  0.21608803  0.75624686  0.22466305     0.20600
C530        C  0.24353223  0.73021444  0.22457285     0.25600
C531        C  0.27459658  0.72542550  0.25057783    -0.22400
C532        C  0.27803115  0.74756778  0.27630255     0.20500
F533        F  0.30794243  0.74404436  0.30151531    -0.12400
F534        F  0.25556656  0.79514237  0.30074307    -0.14700
F535        F  0.23915727  0.70947149  0.19926159    -0.14700
F536        F  0.18671229  0.76040873  0.19918055    -0.12400
C537        C  0.02419876  0.83015820  0.40734274     0.25700
C538        C  0.47827637  0.82957626  0.40405001    -0.22500
C539        C  0.45945949  0.82594285  0.37191732     0.20600
C540        C  0.48612715  0.82577925  0.34308127     0.25600
C541        C  0.03169103  0.83003452  0.34617450    -0.22400
C542        C  0.05078051  0.83066318  0.37850239     0.20500
F543        F  0.09487244  0.83459526  0.38196534    -0.12400
F544        F  0.04296315  0.83382132  0.43815045    -0.14700
F545        F  0.46706469  0.82520886  0.31209772    -0.14700
F546        F  0.41504381  0.82544581  0.36830891    -0.12400
C547        C  0.45469491  0.83090744  0.12808325     0.25700
C548        C  0.47390205  0.83169195  0.09577472    -0.22500
C549        C  0.01982474  0.83070744  0.09266249     0.20600
C550        C  0.04626993  0.83201682  0.12151307     0.25600
C551        C  0.02699512  0.83369692  0.15371289    -0.22400
C552        C  0.48116704  0.83161943  0.15696493     0.20500
F553        F  0.46198476  0.83371660  0.18782267    -0.12400
F554        F  0.41027994  0.83226034  0.13152174    -0.14700
F555        F  0.09058436  0.83434015  0.11792922    -0.14700
F556        F  0.03893453  0.83215784  0.06169002    -0.12400
C557        C  0.20734979  0.92010412  0.37717582     0.25700
C558        C  0.22488388  0.91872767  0.34426231    -0.22500
C559        C  0.27089513  0.92030236  0.34021493     0.20600
C560        C  0.29871577  0.91960068  0.36837313     0.25600
C561        C  0.28108920  0.91718743  0.40121255    -0.22400
C562        C  0.23515860  0.91928717  0.40530100     0.20500
F563        F  0.21685084  0.91872381  0.43658726    -0.12400
F564        F  0.16321131  0.91950317  0.38246058    -0.14700
F565        F  0.34285433  0.91861060  0.36317313    -0.14700
F566        F  0.28920925  0.92060408  0.30893317    -0.12400
C567        C  0.29523976  0.91890989  0.12518866     0.25700
C568        C  0.27699118  0.91521569  0.09271624    -0.22500
C569        C  0.23088820  0.91528874  0.08929440     0.20600
C570        C  0.20385040  0.91574094  0.11786186     0.25600
C571        C  0.22239235  0.91593530  0.15050128    -0.22400
C572        C  0.26820900  0.91912482  0.15373296     0.20500
F573        F  0.28717377  0.92090176  0.18469323    -0.12400
F574        F  0.33947922  0.91990550  0.12980751    -0.14700
F575        F  0.15967072  0.91339918  0.11345729    -0.14700
F576        F  0.21181591  0.91322202  0.05839294    -0.12400
C577        C  0.48712606  0.66780807  0.40293192     0.25700
C578        C  0.03259498  0.66282544  0.39953326    -0.22500
C579        C  0.05081650  0.66117942  0.36690878     0.20600
C580        C  0.02353977  0.66143753  0.33844693     0.25600
C581        C  0.47749955  0.66365519  0.34202124    -0.22400
C582        C  0.45989013  0.66841578  0.37454845     0.20500
F583        F  0.41586072  0.67130877  0.37944689    -0.12400
F584        F  0.46858724  0.67058872  0.43396130    -0.14700
F585        F  0.04217064  0.65773013  0.30758645    -0.14700
F586        F  0.09466580  0.65665369  0.36254322    -0.12400
C587        C  0.44382677  0.66173135  0.11510401     0.25700
C588        C  0.46154859  0.66553524  0.14764868    -0.22500
C589        C  0.00605220  0.67385168  0.15076187     0.20600
C590        C  0.03341438  0.67490930  0.12237499     0.25600
C591        C  0.01687366  0.66726366  0.09022645    -0.22400
C592        C  0.47121591  0.66252040  0.08669739     0.20500
F593        F  0.45328994  0.65665862  0.05601819    -0.12400
F594        F  0.40070640  0.65453379  0.11086805    -0.14700
F595        F  0.07677617  0.68108528  0.12699916    -0.14700
F596        F  0.02368429  0.67951892  0.18158257    -0.12400
C597        C  0.21485282  0.57108061  0.38067600     0.25700
C598        C  0.23260884  0.58007833  0.41185708    -0.22500
C599        C  0.27744105  0.58730767  0.41402785     0.20600
C600        C  0.30315236  0.58871392  0.38480832     0.25600
C601        C  0.28441803  0.58256817  0.35311123    -0.22400
C602        C  0.24082937  0.57196130  0.35141621     0.20500
F603        F  0.22205571  0.56594121  0.32108777    -0.12400
F604        F  0.17132858  0.56445908  0.37806509    -0.14700
F605        F  0.34549254  0.59851559  0.38706371    -0.14700
F606        F  0.29502836  0.59641025  0.44382948    -0.12400
C607        C  0.21684873  0.59418877  0.16608481     0.25700
C608        C  0.25916530  0.58133680  0.16501210    -0.22500
C609        C  0.27391709  0.56729813  0.13523685     0.20600
C610        C  0.24830102  0.56894099  0.10581026     0.25600
C611        C  0.20820028  0.58518688  0.10597008    -0.22400
C612        C  0.19150007  0.59610779  0.13679762     0.20500
F613        F  0.15193946  0.61074250  0.13801298    -0.12400
F614        F  0.20201281  0.60780272  0.19468389    -0.14700
F615        F  0.26485780  0.55776431  0.07653102    -0.14700
F616        F  0.31504413  0.55510643  0.13372057    -0.12400
C617        C  0.04605123  0.99903108  0.48091373     0.25700
C618        C  0.03551041  0.52433982  0.50144950    -0.22500
C619        C  0.49755117  0.52297727  0.02169148     0.20600
C620        C  0.47033776  0.49690614  0.02120083     0.25600
C621        C  0.47990217  0.97206071  0.49975945    -0.22400
C622        C  0.01809530  0.97326028  0.47970536     0.20500
F623        F  0.02873642  0.94923696  0.45940899    -0.12400
F624        F  0.08260346  0.99969334  0.46120750    -0.14700
F625        F  0.43385867  0.49633066  0.04100459    -0.14700
F626        F  0.48706435  0.54680511  0.04232215    -0.12400
C627        C  0.21692734  0.74975984  0.01918550     0.25700
C628        C  0.22714325  0.72336555  0.50026105    -0.22500
C629        C  0.26640591  0.72287542  0.48140776     0.20600
C630        C  0.29506518  0.74832423  0.48161495     0.25600
C631        C  0.28429163  0.77503129  0.49991886    -0.22400
C632        C  0.24490282  0.77548138  0.01867370     0.20500
F633        F  0.23375417  0.80073008  0.03697612    -0.12400
F634        F  0.17916387  0.75098827  0.03744966    -0.14700
F635        F  0.33266203  0.74718797  0.46314253    -0.14700
F636        F  0.27741507  0.69748992  0.46329094    -0.12400
Zn637      Zn  0.06298408  0.62308570  0.49820542     1.49700
Zn638      Zn  0.14162919  0.65025971  0.53979283     1.49400
Zn639      Zn  0.15270345  0.58315567  0.00380266     1.49100
Zn640      Zn  0.14957055  0.64680239  0.96062051     1.49500
O641        O  0.12692862  0.62546212  0.50059163    -1.82100
O642        O  0.03327556  0.64374527  0.53745011    -0.72700
O643        O  0.17274074  0.62303372  0.57281410    -0.72500
O644        O  0.10450695  0.55062465  0.00157066    -0.72000
O645        O  0.08840097  0.66492042  0.56532969    -0.72700
O646        O  0.04324911  0.57878984  0.50002844    -0.72300
O647        O  0.18375618  0.57710783  0.54917138    -0.72900
O648        O  0.18706184  0.61810856  0.93431700    -0.72300
O649        O  0.18080982  0.68677039  0.52808564    -0.73000
O650        O  0.19489144  0.57472142  0.96464213    -0.72400
O651        O  0.18795909  0.68343645  0.97241417    -0.72900
O652        O  0.10089041  0.65966845  0.92894576    -0.72800
O653        O  0.04104786  0.64162577  0.95463079    -0.72600
C654        C  0.04759181  0.65906275  0.56241498     0.79200
C655        C  0.18710477  0.59535728  0.57417988     0.79700
C656        C  0.06267715  0.55269252  0.00093279     0.78600
C657        C  0.20308129  0.59115869  0.93844065     0.79000
C658        C  0.19699661  0.69648164  0.50024247     0.80200
C659        C  0.05955473  0.65494043  0.92953084     0.79200
Zn660      Zn  0.39761346  0.89717969  0.53778062     1.49700
Zn661      Zn  0.31573559  0.87342792  0.99733546     1.49400
Zn662      Zn  0.40114479  0.89692512  0.95805005     1.49100
Zn663      Zn  0.40433190  0.83166750  0.99887607     1.49500
O664        O  0.37989311  0.87442076  0.99787555    -1.82100
O665        O  0.34685753  0.91089578  0.56604351    -0.72700
O666        O  0.29199168  0.89385748  0.95522890    -0.72500
O667        O  0.44072697  0.93286135  0.97053876    -0.72000
O668        O  0.28896714  0.89342465  0.53835346    -0.72700
O669        O  0.43520154  0.93411527  0.52645329    -0.72300
O670        O  0.35097500  0.91183727  0.92846848    -0.72900
O671        O  0.44273953  0.82369108  0.95753507    -0.72300
O672        O  0.29451749  0.82940951  0.99822697    -0.73000
O673        O  0.43642911  0.86841712  0.92935942    -0.72400
O674        O  0.35457801  0.79994881  0.99866535    -0.72900
O675        O  0.44082754  0.82449203  0.54165946    -0.72800
O676        O  0.43228126  0.86948305  0.56791150    -0.72600
C677        C  0.30559606  0.90681428  0.56382106     0.79200
C678        C  0.30949357  0.90783606  0.93012151     0.79700
C679        C  0.45043063  0.94492009  0.99880151     0.78600
C680        C  0.45084299  0.84083116  0.93186626     0.79000
C681        C  0.31278525  0.80286304  0.99877906     0.80200
C682        C  0.44734668  0.84206198  0.56686081     0.79200
Zn683      Zn  0.34673214  0.64669745  0.71062620     1.48500
Zn684      Zn  0.43426924  0.62447546  0.74643052     1.49400
Zn685      Zn  0.35394739  0.64853531  0.78989690     1.49100
Zn686      Zn  0.34624546  0.58224731  0.75308134     1.49500
O687        O  0.37017227  0.62507943  0.75004425    -1.82100
O688        O  0.39381171  0.65852305  0.67709831    -0.72700
O689        O  0.46322128  0.64329665  0.78725666    -0.72500
O690        O  0.31691557  0.68631574  0.77874359    -0.72000
O691        O  0.45548336  0.64552270  0.70364148    -0.72700
O692        O  0.31241685  0.68470508  0.72291734    -0.72300
O693        O  0.40675514  0.66122304  0.81647810    -0.72900
O694        O  0.31369181  0.57516296  0.79767152    -0.72300
O695        O  0.45559129  0.58048731  0.74495069    -0.73000
O696        O  0.32069410  0.62123227  0.82177913    -0.72400
O697        O  0.39620918  0.55094914  0.75123929    -0.72900
O698        O  0.30389038  0.57376813  0.71411215    -0.72800
O699        O  0.30525370  0.61916451  0.68681735    -0.72600
C700        C  0.43557927  0.65671700  0.67794703     0.79200
C701        C  0.44782132  0.65645717  0.81335072     0.79700
C702        C  0.30293997  0.69744018  0.75080484     0.78600
C703        C  0.30747896  0.59329009  0.82243408     0.79000
C704        C  0.43771908  0.55391500  0.74767808     0.80200
C705        C  0.29128724  0.59158140  0.69010164     0.79200
Zn706      Zn  0.18820329  0.87647065  0.74900342     1.49700
Zn707      Zn  0.10001598  0.83425867  0.74875856     1.49400
Zn708      Zn  0.10399849  0.89879711  0.78917697     1.49100
Zn709      Zn  0.10393620  0.89992350  0.70925709     1.49500
O710        O  0.12391418  0.87703402  0.74909192    -1.82100
O711        O  0.21025466  0.83259835  0.75130332    -0.72700
O712        O  0.06388244  0.82518682  0.79133028    -0.72500
O713        O  0.15467403  0.91349393  0.81779231    -0.72000
O714        O  0.15023564  0.80328485  0.74762278    -0.72700
O715        O  0.21340837  0.89759432  0.78969733    -0.72300
O716        O  0.07100859  0.86954673  0.81896200    -0.72900
O717        O  0.06787101  0.93737335  0.72132367    -0.72300
O718        O  0.06214728  0.82693175  0.70714531    -0.73000
O719        O  0.06352575  0.93466261  0.77733950    -0.72400
O720        O  0.06717676  0.87250346  0.68055058    -0.72900
O721        O  0.15361601  0.91268522  0.67900424    -0.72800
O722        O  0.21270966  0.89543377  0.70609240    -0.72600
C723        C  0.19188361  0.80618489  0.74971750     0.79200
C724        C  0.05706564  0.84186582  0.81719921     0.79700
C725        C  0.19621036  0.91035683  0.81535634     0.78600
C726        C  0.05334008  0.94748506  0.74926978     0.79000
C727        C  0.05347369  0.84471983  0.68212948     0.80200
C728        C  0.19493054  0.90834478  0.68041373     0.79200
C729        C  0.00600035  0.52650623  0.72874276     0.25700
C730        C  0.46633735  0.52610249  0.74718423    -0.22500
C731        C  0.45544736  0.99941400  0.76617806     0.20600
C732        C  0.48417307  0.97402247  0.76735352     0.25600
C733        C  0.02368178  0.97455712  0.74890804    -0.22400
C734        C  0.03411897  0.50085012  0.72932887     0.20500
F735        F  0.07216837  0.50198856  0.71137821    -0.12400
F736        F  0.01737020  0.55162151  0.70972410    -0.14700
F737        F  0.47291898  0.94859614  0.78590215    -0.14700
F738        F  0.41757158  0.99816517  0.78432481    -0.12400
C739        C  0.25128713  0.77398548  0.77583950     0.25700
C740        C  0.21983652  0.77830890  0.75023499    -0.22500
C741        C  0.21609217  0.75624490  0.72466842     0.20600
C742        C  0.24353738  0.73021315  0.72457850     0.25600
C743        C  0.27460789  0.72542850  0.75057973    -0.22400
C744        C  0.27804612  0.74757348  0.77630150     0.20500
F745        F  0.30796182  0.74405309  0.80151163    -0.12400
F746        F  0.25558384  0.79514982  0.80073885    -0.14700
F747        F  0.23915716  0.70946626  0.69927156    -0.14700
F748        F  0.18671043  0.76040276  0.69918933    -0.12400
C749        C  0.02420304  0.83013273  0.90734539     0.25700
C750        C  0.47828594  0.82956446  0.90405491    -0.22500
C751        C  0.45947029  0.82593961  0.87192069     0.20600
C752        C  0.48613930  0.82578059  0.84308568     0.25600
C753        C  0.03169869  0.83002931  0.84617729    -0.22400
C754        C  0.05078688  0.83064205  0.87850609     0.20500
F755        F  0.09488045  0.83456286  0.88197226    -0.12400
F756        F  0.04296681  0.83378030  0.93815565    -0.14700
F757        F  0.46707840  0.82522032  0.81210123    -0.14700
F758        F  0.41505471  0.82544880  0.86831019    -0.12400
C759        C  0.45467864  0.83091743  0.62809473     0.25700
C760        C  0.47388536  0.83169257  0.59578560    -0.22500
C761        C  0.01980905  0.83070119  0.59267358     0.20600
C762        C  0.04625584  0.83200972  0.62152373     0.25600
C763        C  0.02698297  0.83369673  0.65372375    -0.22400
C764        C  0.48115138  0.83162849  0.65697620     0.20500
F765        F  0.46197009  0.83373444  0.68783356    -0.12400
F766        F  0.41026423  0.83227886  0.63153332    -0.14700
F767        F  0.09057099  0.83432549  0.61793879    -0.14700
F768        F  0.03891849  0.83214418  0.56170067    -0.12400
C769        C  0.20738116  0.92012311  0.87716792     0.25700
C770        C  0.22491047  0.91872972  0.84425399    -0.22500
C771        C  0.27092257  0.92029056  0.84020317     0.20600
C772        C  0.29874594  0.91959111  0.86835983     0.25600
C773        C  0.28112159  0.91719529  0.90120108    -0.22400
C774        C  0.23519273  0.91930913  0.90529150     0.20500
F775        F  0.21688830  0.91876243  0.93657902    -0.12400
F776        F  0.16324304  0.91953693  0.88245605    -0.14700
F777        F  0.34288339  0.91858555  0.86315757    -0.14700
F778        F  0.28923420  0.92057601  0.80892057    -0.12400
C779        C  0.29522001  0.91891056  0.62518551     0.25700
C780        C  0.27696852  0.91521469  0.59271440    -0.22500
C781        C  0.23086548  0.91529142  0.58929393     0.20600
C782        C  0.20382960  0.91574853  0.61786246     0.25600
C783        C  0.22237467  0.91594156  0.65050087    -0.22400
C784        C  0.26819153  0.91912929  0.65373051     0.20500
F785        F  0.28715896  0.92090713  0.68468978    -0.12400
F786        F  0.33945993  0.91990247  0.62980290    -0.14700
F787        F  0.15964876  0.91341319  0.61346023    -0.14700
F788        F  0.21179124  0.91322317  0.55839328    -0.12400
C789        C  0.48714494  0.66784265  0.90292895     0.25700
C790        C  0.03261058  0.66285395  0.89953451    -0.22500
C791        C  0.05083506  0.66120704  0.86691102     0.20600
C792        C  0.02356058  0.66146585  0.83844811     0.25600
C793        C  0.47752128  0.66368196  0.84201903    -0.22400
C794        C  0.45991084  0.66845035  0.87454463     0.20500
F795        F  0.41588198  0.67135016  0.87944091    -0.12400
F796        F  0.46860543  0.67062952  0.93395744    -0.14700
F797        F  0.04219338  0.65775693  0.80758850    -0.14700
F798        F  0.09468413  0.65667841  0.86254777    -0.12400
C799        C  0.44384896  0.66174091  0.61511181     0.25700
C800        C  0.46157502  0.66554373  0.64765525    -0.22500
C801        C  0.00608283  0.67385720  0.65076425     0.20600
C802        C  0.03344211  0.67490928  0.62237559     0.25600
C803        C  0.01689631  0.66726197  0.59022894    -0.22400
C804        C  0.47123555  0.66252466  0.58670382     0.20500
F805        F  0.45330514  0.65666296  0.55602619    -0.12400
F806        F  0.40072632  0.65454848  0.61087869    -0.14700
F807        F  0.07680571  0.68108103  0.62699643    -0.14700
F808        F  0.02371906  0.67952499  0.68158340    -0.12400
C809        C  0.21486375  0.57110699  0.88068222     0.25700
C810        C  0.23262243  0.58009487  0.91186584    -0.22500
C811        C  0.27745700  0.58731745  0.91403819     0.20600
C812        C  0.30316873  0.58872584  0.88481829     0.25600
C813        C  0.28443248  0.58258828  0.85311959    -0.22400
C814        C  0.24083997  0.57198995  0.85142246     0.20500
F815        F  0.22206296  0.56598093  0.82109255    -0.12400
F816        F  0.17133725  0.56449344  0.87806952    -0.14700
F817        F  0.34551198  0.59852050  0.88707572    -0.14700
F818        F  0.29504742  0.59641082  0.94384223    -0.12400
C819        C  0.21688926  0.59416290  0.66607174     0.25700
C820        C  0.25922142  0.58133682  0.66499308    -0.22500
C821        C  0.27399117  0.56732084  0.63520979     0.20600
C822        C  0.24837107  0.56895712  0.60578466     0.25600
C823        C  0.20824732  0.58517448  0.60595342    -0.22400
C824        C  0.19153639  0.59607559  0.63678588     0.20500
F825        F  0.15195787  0.61068571  0.63800771    -0.12400
F826        F  0.20203798  0.60775853  0.69467653    -0.14700
F827        F  0.26494171  0.55780368  0.57649924    -0.14700
F828        F  0.31513425  0.55515676  0.63368649    -0.12400
C829        C  0.04604110  0.99905705  0.98087468     0.25700
C830        C  0.03551731  0.52435415  0.00143252    -0.22500
C831        C  0.49752264  0.52297561  0.52168810     0.20600
C832        C  0.47030356  0.49690744  0.52119379     0.25600
C833        C  0.47991862  0.97206937  0.99974764    -0.22400
C834        C  0.01809021  0.97328351  0.97966970     0.20500
F835        F  0.02871577  0.94927189  0.95935224    -0.12400
F836        F  0.08257131  0.99973454  0.96114487    -0.14700
F837        F  0.43380382  0.49634379  0.54097531    -0.14700
F838        F  0.48701956  0.54681291  0.54230105    -0.12400
C839        C  0.21703431  0.74969591  0.51929724     0.25700
C840        C  0.22713318  0.72337884  0.00026523    -0.22500
C841        C  0.26648094  0.72283966  0.98152119     0.20600
C842        C  0.29513400  0.74829193  0.98172367     0.25600
C843        C  0.28427199  0.77504976  0.99991237    -0.22400
C844        C  0.24501335  0.77541581  0.51879042     0.20500
F845        F  0.23396089  0.80061696  0.53720361    -0.12400
F846        F  0.17935980  0.75087938  0.53767304    -0.14700
F847        F  0.33281707  0.74710455  0.96335931    -0.14700
F848        F  0.27757603  0.69740350  0.96351862    -0.12400
Zn849      Zn  0.56298342  0.12309880  0.99820057     1.49700
Zn850      Zn  0.64161622  0.15027726  0.03979344     1.49400
Zn851      Zn  0.65270353  0.08313859  0.50379916     1.49100
Zn852      Zn  0.64956384  0.14679000  0.46061587     1.49500
O853        O  0.62692727  0.12547622  0.00059197    -1.82100
O854        O  0.53326626  0.14374955  0.03744668    -0.72700
O855        O  0.67272065  0.12305043  0.07281793    -0.72500
O856        O  0.60450413  0.05060768  0.50158151    -0.72000
O857        O  0.58838256  0.16493383  0.06532791    -0.72700
O858        O  0.54325047  0.07880282  0.00001436    -0.72300
O859        O  0.68373073  0.07712131  0.04918054    -0.72900
O860        O  0.68705634  0.11809614  0.43431151    -0.72300
O861        O  0.68079176  0.18679231  0.02808728    -0.73000
O862        O  0.69487204  0.07470265  0.46462863    -0.72400
O863        O  0.68794768  0.18342965  0.47240685    -0.72900
O864        O  0.60087755  0.15964937  0.42894195    -0.72800
O865        O  0.54104164  0.14160392  0.45463341    -0.72600
C866        C  0.54757528  0.15906882  0.06241218     0.79200
C867        C  0.68707531  0.09537158  0.07418851     0.79700
C868        C  0.56267417  0.05267687  0.50094661     0.78600
C869        C  0.70306655  0.09114278  0.43843031     0.79000
C870        C  0.69699279  0.19649357  0.00024499     0.80200
C871        C  0.55954288  0.15491750  0.42953014     0.79200
Zn872      Zn  0.89763533  0.39718587  0.03777584     1.49700
Zn873      Zn  0.81571573  0.37341347  0.49734389     1.49400
Zn874      Zn  0.90111917  0.39692569  0.45805590     1.49100
Zn875      Zn  0.90432932  0.33166751  0.49887721     1.49500
O876        O  0.87987460  0.37441589  0.49788058    -1.82100
O877        O  0.84688190  0.41089883  0.06604507    -0.72700
O878        O  0.79196672  0.39383741  0.45523473    -0.72500
O879        O  0.94070345  0.43286019  0.47054778    -0.72000
O880        O  0.78899063  0.39343553  0.03834999    -0.72700
O881        O  0.93522167  0.43412275  0.02644668    -0.72300
O882        O  0.85094271  0.41183974  0.42848195    -0.72900
O883        O  0.94274226  0.32370149  0.45753660    -0.72300
O884        O  0.79451098  0.32939108  0.49824621    -0.73000
O885        O  0.93640484  0.36842346  0.42935705    -0.72400
O886        O  0.85458469  0.29994096  0.49865728    -0.72900
O887        O  0.94082759  0.32449060  0.04165553    -0.72800
O888        O  0.93230645  0.36948719  0.06790146    -0.72600
C889        C  0.80562008  0.40681930  0.06382125     0.79200
C890        C  0.80946319  0.40782719  0.43013221     0.79700
C891        C  0.95040955  0.44491521  0.49881214     0.78600
C892        C  0.95083315  0.34084131  0.43186511     0.79000
C893        C  0.81279123  0.30284855  0.49878493     0.80200
C894        C  0.94735984  0.34206273  0.06685270     0.79200
Zn895      Zn  0.84670543  0.14668729  0.21062233     1.48500
Zn896      Zn  0.93424476  0.12446535  0.24642194     1.49400
Zn897      Zn  0.85392376  0.14852189  0.28989161     1.49100
Zn898      Zn  0.84622615  0.08223414  0.25307285     1.49500
O899        O  0.87014837  0.12506791  0.25003773    -1.82100
O900        O  0.89378180  0.15850629  0.17708750    -0.72700
O901        O  0.96319869  0.14327900  0.28725185    -0.72500
O902        O  0.81689763  0.18630731  0.27874098    -0.72000
O903        O  0.95545521  0.14551813  0.20363538    -0.72700
O904        O  0.81240255  0.18469981  0.22291460    -0.72300
O905        O  0.90673335  0.16120081  0.31647770    -0.72900
O906        O  0.81368037  0.07514401  0.29766389    -0.72300
O907        O  0.95556928  0.08047840  0.24493260    -0.73000
O908        O  0.82066544  0.12121640  0.32176768    -0.72400
O909        O  0.89619002  0.05093736  0.25122037    -0.72900
O910        O  0.80386020  0.07375791  0.21411234    -0.72800
O911        O  0.80521037  0.11915874  0.18682589    -0.72600
C912        C  0.93555020  0.15670669  0.17793853     0.79200
C913        C  0.94779982  0.15643419  0.31334919     0.79700
C914        C  0.80292615  0.19743467  0.25080216     0.78600
C915        C  0.80745910  0.09327221  0.32242417     0.79000
C916        C  0.93769932  0.05390524  0.24765696     0.80200
C917        C  0.79124429  0.09157548  0.19011000     0.79200
Zn918      Zn  0.68820269  0.37647124  0.24900500     1.49700
Zn919      Zn  0.60001261  0.33426003  0.24875338     1.49400
Zn920      Zn  0.60398739  0.39879804  0.28916798     1.49100
Zn921      Zn  0.60394513  0.39992492  0.20924905     1.49500
O922        O  0.62391321  0.37703503  0.24908652    -1.82100
O923        O  0.71025129  0.33259786  0.25130613    -0.72700
O924        O  0.56387439  0.32518616  0.29132382    -0.72500
O925        O  0.65465518  0.41349494  0.31778991    -0.72000
O926        O  0.65023153  0.30328592  0.24761762    -0.72700
O927        O  0.71339725  0.39759477  0.28970389    -0.72300
O928        O  0.57099409  0.36954873  0.31895081    -0.72900
O929        O  0.56787659  0.43737518  0.22131009    -0.72300
O930        O  0.56214892  0.32693484  0.20713855    -0.73000
O931        O  0.56351512  0.43466152  0.27732507    -0.72400
O932        O  0.56719055  0.37250435  0.18054030    -0.72900
O933        O  0.65363137  0.41268339  0.17900057    -0.72800
O934        O  0.71272030  0.39543239  0.20609509    -0.72600
C935        C  0.69187939  0.30618493  0.24971600     0.79200
C936        C  0.55705381  0.34186715  0.31719074     0.79700
C937        C  0.69619197  0.41035700  0.31536045     0.78600
C938        C  0.55333615  0.44748465  0.24925460     0.79000
C939        C  0.55348345  0.34472176  0.18212026     0.80200
C940        C  0.69494551  0.40834166  0.18041355     0.79200
C941        C  0.50598440  0.02650200  0.22872502     0.25700
C942        C  0.96631967  0.02609420  0.24716006    -0.22500
C943        C  0.95543565  0.49940636  0.26615607     0.20600
C944        C  0.98416579  0.47401758  0.26733292     0.25600
C945        C  0.52367276  0.47455394  0.24888953    -0.22400
C946        C  0.53410829  0.00084864  0.22931301     0.20500
F947        F  0.57216193  0.00199206  0.21136787    -0.12400
F948        F  0.51735331  0.05161957  0.20970980    -0.14700
F949        F  0.97291745  0.44859207  0.28588501    -0.14700
F950        F  0.91756154  0.49815565  0.28430479    -0.12400
C951        C  0.75127752  0.27398129  0.27583930     0.25700
C952        C  0.71983100  0.27830824  0.25023244    -0.22500
C953        C  0.71608975  0.25624716  0.22466268     0.20600
C954        C  0.74353297  0.23021437  0.22457237     0.25600
C955        C  0.77459824  0.22542540  0.25057670    -0.22400
C956        C  0.77803451  0.24756818  0.27630087     0.20500
F957        F  0.80794673  0.24404471  0.30151295    -0.12400
F958        F  0.75557214  0.29514336  0.30074111    -0.14700
F959        F  0.73915632  0.20947098  0.19926165    -0.14700
F960        F  0.68671306  0.26040894  0.19918083    -0.12400
C961        C  0.52419705  0.33015113  0.40733998     0.25700
C962        C  0.97828006  0.32957859  0.40405361    -0.22500
C963        C  0.95946398  0.32593853  0.37192159     0.20600
C964        C  0.98613157  0.32577518  0.34308541     0.25600
C965        C  0.53168993  0.33003212  0.34617166    -0.22400
C966        C  0.55077924  0.33065590  0.37849972     0.20500
F967        F  0.59487190  0.33458330  0.38196336    -0.12400
F968        F  0.54296185  0.33380935  0.43814829    -0.14700
F969        F  0.96706912  0.32519793  0.31210211    -0.14700
F970        F  0.91504843  0.32543460  0.36831360    -0.12400
C971        C  0.95469146  0.33090885  0.12808365     0.25700
C972        C  0.97389916  0.33169116  0.09577516    -0.22500
C973        C  0.51982595  0.33070744  0.09266285     0.20600
C974        C  0.54627140  0.33201727  0.12151325     0.25600
C975        C  0.52699679  0.33369843  0.15371306    -0.22400
C976        C  0.98116321  0.33162027  0.15696548     0.20500
F977        F  0.96198065  0.33371986  0.18782292    -0.12400
F978        F  0.91027660  0.33226451  0.13152162    -0.14700
F979        F  0.59058589  0.33433990  0.11792914    -0.14700
F980        F  0.53893550  0.33215670  0.06169019    -0.12400
C981        C  0.70734938  0.42010454  0.37717661     0.25700
C982        C  0.72488364  0.41872813  0.34426321    -0.22500
C983        C  0.77089497  0.42030300  0.34021594     0.20600
C984        C  0.79871544  0.41960126  0.36837424     0.25600
C985        C  0.78108864  0.41718783  0.40121359    -0.22400
C986        C  0.73515798  0.41928753  0.40530191     0.20500
F987        F  0.71685000  0.41872409  0.43658808    -0.12400
F988        F  0.66321087  0.41950363  0.38246122    -0.14700
F989        F  0.84285405  0.41861109  0.36317434    -0.14700
F990        F  0.78920931  0.42060499  0.30893428    -0.12400
C991        C  0.79524033  0.41890998  0.12518797     0.25700
C992        C  0.77699105  0.41521511  0.09271582    -0.22500
C993        C  0.73088817  0.41528768  0.08929442     0.20600
C994        C  0.70385073  0.41574017  0.11786209     0.25600
C995        C  0.72239335  0.41593543  0.15050132    -0.22400
C996        C  0.76820991  0.41912520  0.15373251     0.20500
F997        F  0.78717515  0.42090290  0.18469254    -0.12400
F998        F  0.83947982  0.41990597  0.12980633    -0.14700
F999        F  0.65967103  0.41339801  0.11345797    -0.14700
F1000       F  0.71181529  0.41322017  0.05839320    -0.12400
C1001       C  0.98712683  0.16780875  0.40292998     0.25700
C1002       C  0.53259267  0.16282572  0.39953489    -0.22500
C1003       C  0.55081454  0.16118267  0.36691005     0.20600
C1004       C  0.52353756  0.16144129  0.33844839     0.25600
C1005       C  0.97750038  0.16365301  0.34201952    -0.22400
C1006       C  0.95989116  0.16841562  0.37454633     0.20500
F1007       F  0.91586190  0.17131046  0.37944448    -0.12400
F1008       F  0.96858816  0.17059162  0.43395910    -0.14700
F1009       F  0.54216878  0.15773705  0.30758748    -0.14700
F1010       F  0.59466428  0.15665975  0.36254412    -0.12400
C1011       C  0.94382531  0.16173154  0.11510316     0.25700
C1012       C  0.96154683  0.16553574  0.14764781    -0.22500
C1013       C  0.50605431  0.17385000  0.15076152     0.20600
C1014       C  0.53341630  0.17490700  0.12237441     0.25600
C1015       C  0.51687549  0.16726143  0.09022607    -0.22400
C1016       C  0.97121446  0.16252124  0.08669667     0.20500
F1017       F  0.95328896  0.15665893  0.05601747    -0.12400
F1018       F  0.90070533  0.15453263  0.11086715    -0.14700
F1019       F  0.57677832  0.18108250  0.12699852    -0.14700
F1020       F  0.52368656  0.17951750  0.18158208    -0.12400
C1021       C  0.71485230  0.07107974  0.38067561     0.25700
C1022       C  0.73260812  0.08007883  0.41185637    -0.22500
C1023       C  0.77743987  0.08730946  0.41402676     0.20600
C1024       C  0.80315100  0.08871561  0.38480712     0.25600
C1025       C  0.78441674  0.08256850  0.35311030    -0.22400
C1026       C  0.74082878  0.07196048  0.35141567     0.20500
F1027       F  0.72205534  0.06593894  0.32108750    -0.12400
F1028       F  0.67132851  0.06445685  0.37806516    -0.14700
F1029       F  0.84549061  0.09851830  0.38706210    -0.14700
F1030       F  0.79502697  0.09641326  0.44382807    -0.12400
C1031       C  0.71684892  0.09418585  0.16608213     0.25700
C1032       C  0.75916636  0.08133527  0.16500936    -0.22500
C1033       C  0.77391993  0.06729844  0.13523359     0.20600
C1034       C  0.74830441  0.06894153  0.10580674     0.25600
C1035       C  0.70820251  0.08518596  0.10596694    -0.22400
C1036       C  0.69150082  0.09610512  0.13679464     0.20500
F1037       F  0.65193933  0.11073862  0.13800994    -0.12400
F1038       F  0.70201139  0.10779816  0.19468164    -0.14700
F1039       F  0.76486274  0.05776677  0.07652714    -0.14700
F1040       F  0.81504793  0.05510833  0.13371723    -0.12400
C1041       C  0.54605047  0.49903089  0.48091137     0.25700
C1042       C  0.53551082  0.02433926  0.50144869    -0.22500
C1043       C  0.99754939  0.02297835  0.02169266     0.20600
C1044       C  0.97033600  0.99690722  0.02120207     0.25600
C1045       C  0.97990143  0.47206138  0.49976114    -0.22400
C1046       C  0.51809445  0.47326018  0.47970253     0.20500
F1047       F  0.52873490  0.44923756  0.45940495    -0.12400
F1048       F  0.58260203  0.49969384  0.46120447    -0.14700
F1049       F  0.93385627  0.99633194  0.04100502    -0.14700
F1050       F  0.98706169  0.04680657  0.04232269    -0.12400
C1051       C  0.71690479  0.24976929  0.01915764     0.25700
C1052       C  0.72714225  0.22336580  0.50026111    -0.22500
C1053       C  0.76640358  0.22287676  0.48140614     0.20600
C1054       C  0.79506271  0.24832559  0.48161339     0.25600
C1055       C  0.78429041  0.27503186  0.49991925    -0.22400
C1056       C  0.74487899  0.27549146  0.01864583     0.20500
F1057       F  0.73370920  0.30074964  0.03692538    -0.12400
F1058       F  0.67912236  0.25100640  0.03739796    -0.14700
F1059       F  0.83265821  0.24719030  0.46313927    -0.14700
F1060       F  0.77741156  0.19749211  0.46328743    -0.12400
Zn1061     Zn  0.56298390  0.12308512  0.49820618     1.49700
Zn1062     Zn  0.64162917  0.15025938  0.53979304     1.49400
Zn1063     Zn  0.65270437  0.08315405  0.00380028     1.49100
Zn1064     Zn  0.64957243  0.14680002  0.96061794     1.49500
O1065       O  0.62692842  0.12546175  0.50059194    -1.82100
O1066       O  0.53327535  0.14374395  0.53745141    -0.72700
O1067       O  0.67274223  0.12303354  0.57281348    -0.72500
O1068       O  0.60450761  0.05062311  0.00156797    -0.72000
O1069       O  0.58840096  0.16491910  0.56533082    -0.72700
O1070       O  0.54324930  0.07878934  0.50002849    -0.72300
O1071       O  0.68375763  0.07710772  0.54917060    -0.72900
O1072       O  0.68706258  0.11810567  0.93431410    -0.72300
O1073       O  0.68080904  0.18677061  0.52808571    -0.73000
O1074       O  0.69489325  0.07471930  0.96464024    -0.72400
O1075       O  0.68796251  0.18343355  0.97241100    -0.72900
O1076       O  0.60089181  0.15966661  0.92894401    -0.72800
O1077       O  0.54104885  0.14162522  0.95462980    -0.72600
C1078       C  0.54759148  0.15906107  0.56241628     0.79200
C1079       C  0.68710673  0.09535727  0.57417902     0.79700
C1080       C  0.56267790  0.05269117  0.00093016     0.78600
C1081       C  0.70308254  0.09115605  0.93843831     0.79000
C1082       C  0.69699572  0.19648185  0.50024265     0.80200
C1083       C  0.55955596  0.15493950  0.92952957     0.79200
Zn1084     Zn  0.89761227  0.39718047  0.53778208     1.49700
Zn1085     Zn  0.81573538  0.37342918  0.99733381     1.49400
Zn1086     Zn  0.90114530  0.39692660  0.95805016     1.49100
Zn1087     Zn  0.90433038  0.33166792  0.99887566     1.49500
O1088       O  0.87989288  0.37442153  0.99787505    -1.82100
O1089       O  0.84685638  0.41089707  0.56604445    -0.72700
O1090       O  0.79199248  0.39386034  0.95522814    -0.72500
O1091       O  0.94072803  0.43286247  0.97054000    -0.72000
O1092       O  0.78896560  0.39342617  0.53835466    -0.72700
O1093       O  0.93520106  0.43411591  0.52645511    -0.72300
O1094       O  0.85097632  0.41183961  0.92846811    -0.72900
O1095       O  0.94273711  0.32369152  0.95753404    -0.72300
O1096       O  0.79451645  0.32941100  0.99822195    -0.73000
O1097       O  0.93642888  0.36841838  0.92935950    -0.72400
O1098       O  0.85457555  0.29994944  0.99866554    -0.72900
O1099       O  0.94082527  0.32449262  0.54166046    -0.72800
O1100       O  0.93227960  0.36948349  0.56791298    -0.72600
C1101       C  0.80559493  0.40681600  0.56382210     0.79200
C1102       C  0.80949475  0.40783880  0.93012091     0.79700
C1103       C  0.95043095  0.44492082  0.99880311     0.78600
C1104       C  0.95084126  0.34083203  0.93186556     0.79000
C1105       C  0.81278265  0.30286403  0.99877624     0.80200
C1106       C  0.94734472  0.34206223  0.56686181     0.79200
Zn1107     Zn  0.84673394  0.14669841  0.71062578     1.48500
Zn1108     Zn  0.93427199  0.12447713  0.74642970     1.49400
Zn1109     Zn  0.85394907  0.14853555  0.78989664     1.49100
Zn1110     Zn  0.84624886  0.08224804  0.75308005     1.49500
O1111       O  0.87017482  0.12508041  0.75004348    -1.82100
O1112       O  0.89381309  0.15852501  0.67709806    -0.72700
O1113       O  0.96322355  0.14329871  0.78725600    -0.72500
O1114       O  0.81691594  0.18631558  0.77874361    -0.72000
O1115       O  0.95548542  0.14552478  0.70364055    -0.72700
O1116       O  0.81241742  0.18470534  0.72291730    -0.72300
O1117       O  0.90675672  0.16122391  0.81647762    -0.72900
O1118       O  0.81369508  0.07516268  0.79766992    -0.72300
O1119       O  0.95559517  0.08048908  0.74494969    -0.73000
O1120       O  0.82069673  0.12123148  0.82177881    -0.72400
O1121       O  0.89621315  0.05095071  0.75123807    -0.72900
O1122       O  0.80389434  0.07376848  0.71411056    -0.72800
O1123       O  0.80525662  0.11916514  0.68681625    -0.72600
C1124       C  0.93558064  0.15671924  0.67794638     0.79200
C1125       C  0.94782325  0.15645877  0.81335012     0.79700
C1126       C  0.80294011  0.19744004  0.75080493     0.78600
C1127       C  0.80748197  0.09328918  0.82243304     0.79000
C1128       C  0.93772277  0.05391651  0.74767704     0.80200
C1129       C  0.79129098  0.09158181  0.69010017     0.79200
Zn1130     Zn  0.68820337  0.37647069  0.74900318     1.49700
Zn1131     Zn  0.60001621  0.33425872  0.74875849     1.49400
Zn1132     Zn  0.60399910  0.39879698  0.78917749     1.49100
Zn1133     Zn  0.60393566  0.39992388  0.70925758     1.49500
O1134       O  0.62391449  0.37703417  0.74909217    -1.82100
O1135       O  0.71025479  0.33259835  0.75130243    -0.72700
O1136       O  0.56388327  0.32518652  0.79133051    -0.72500
O1137       O  0.65467512  0.41349469  0.81779196    -0.72000
O1138       O  0.65023577  0.30328485  0.74762239    -0.72700
O1139       O  0.71340901  0.39759415  0.78969704    -0.72300
O1140       O  0.57101116  0.36954589  0.81896303    -0.72900
O1141       O  0.56786924  0.43737292  0.72132493    -0.72300
O1142       O  0.56214740  0.32693198  0.70714522    -0.73000
O1143       O  0.56352446  0.43466195  0.77734081    -0.72400
O1144       O  0.56717693  0.37250374  0.68055061    -0.72900
O1145       O  0.65361505  0.41268703  0.67900495    -0.72800
O1146       O  0.71270883  0.39543462  0.70609232    -0.72600
C1147       C  0.69188343  0.30618472  0.74971671     0.79200
C1148       C  0.55706773  0.34186511  0.81719999     0.79700
C1149       C  0.69621146  0.41035719  0.81535584     0.78600
C1150       C  0.55333817  0.44748424  0.74927138     0.79000
C1151       C  0.55347400  0.34472013  0.68212940     0.80200
C1152       C  0.69492962  0.40834633  0.68041414     0.79200
C1153       C  0.50599648  0.02650490  0.72874394     0.25700
C1154       C  0.96634123  0.02610435  0.74718321    -0.22500
C1155       C  0.95545110  0.49941605  0.76617737     0.20600
C1156       C  0.98417650  0.47402437  0.76735290     0.25600
C1157       C  0.52367914  0.47455603  0.74890944    -0.22400
C1158       C  0.53411533  0.00084896  0.72933000     0.20500
F1159       F  0.57216496  0.00198795  0.71137954    -0.12400
F1160       F  0.51736619  0.05162045  0.70972569    -0.14700
F1161       F  0.97292202  0.44859829  0.78590191    -0.14700
F1162       F  0.91757539  0.49816758  0.78432409    -0.12400
C1163       C  0.75128757  0.27398574  0.77583866     0.25700
C1164       C  0.71983667  0.27830881  0.75023449    -0.22500
C1165       C  0.71609127  0.25624412  0.72466856     0.20600
C1166       C  0.74353645  0.23021230  0.72457909     0.25600
C1167       C  0.77460760  0.22542819  0.75057983    -0.22400
C1168       C  0.77804664  0.24757372  0.77630103     0.20500
F1169       F  0.80796285  0.24405382  0.80151078    -0.12400
F1170       F  0.75558508  0.29515070  0.80073744    -0.14700
F1171       F  0.73915540  0.20946481  0.69927279    -0.14700
F1172       F  0.68670891  0.26040149  0.69918987    -0.12400
C1173       C  0.52420546  0.33013204  0.90734630     0.25700
C1174       C  0.97828306  0.32956521  0.90405369    -0.22500
C1175       C  0.95946686  0.32594259  0.87191923     0.20600
C1176       C  0.98613575  0.32578360  0.84308422     0.25600
C1177       C  0.53170124  0.33002839  0.84617823    -0.22400
C1178       C  0.55078934  0.33064159  0.87850704     0.20500
F1179       F  0.59488275  0.33456308  0.88197326    -0.12400
F1180       F  0.54296906  0.33378010  0.93815657    -0.14700
F1181       F  0.96707457  0.32522567  0.81209975    -0.14700
F1182       F  0.91505121  0.32545412  0.86830883    -0.12400
C1183       C  0.95467850  0.33091520  0.62809519     0.25700
C1184       C  0.97388447  0.33169280  0.59578594    -0.22500
C1185       C  0.51981030  0.33070013  0.59267329     0.20600
C1186       C  0.54625680  0.33200889  0.62152375     0.25600
C1187       C  0.52698334  0.33369699  0.65372347    -0.22400
C1188       C  0.98115173  0.33162617  0.65697653     0.20500
F1189       F  0.96197095  0.33372958  0.68783418    -0.12400
F1190       F  0.91026399  0.33227421  0.63153437    -0.14700
F1191       F  0.59057199  0.33432387  0.61793918    -0.14700
F1192       F  0.53892039  0.33214190  0.56170056    -0.12400
C1193       C  0.70738271  0.42012546  0.87716701     0.25700
C1194       C  0.72491184  0.41873059  0.84425313    -0.22500
C1195       C  0.77092404  0.42029094  0.84020216     0.20600
C1196       C  0.79874740  0.41959239  0.86835883     0.25600
C1197       C  0.78112316  0.41719793  0.90120021    -0.22400
C1198       C  0.73519427  0.41931233  0.90529060     0.20500
F1199       F  0.71688994  0.41876688  0.93657819    -0.12400
F1200       F  0.66324458  0.41953951  0.88245529    -0.14700
F1201       F  0.84288487  0.41858602  0.86315657    -0.14700
F1202       F  0.78923557  0.42057487  0.80891953    -0.12400
C1203       C  0.79521923  0.41891190  0.62518648     0.25700
C1204       C  0.77696753  0.41521703  0.59271524    -0.22500
C1205       C  0.73086457  0.41529512  0.58929467     0.20600
C1206       C  0.70382860  0.41575254  0.61786314     0.25600
C1207       C  0.72237368  0.41594400  0.65050162    -0.22400
C1208       C  0.76819070  0.41913068  0.65373138     0.20500
F1209       F  0.78715830  0.42090715  0.68469069    -0.12400
F1210       F  0.83945913  0.41990248  0.62980390    -0.14700
F1211       F  0.65964768  0.41341868  0.61346088    -0.14700
F1212       F  0.71179033  0.41322806  0.55839388    -0.12400
C1213       C  0.98714554  0.16784382  0.90292884     0.25700
C1214       C  0.53261154  0.16285338  0.89953365    -0.22500
C1215       C  0.55083516  0.16120506  0.86690991     0.20600
C1216       C  0.52355996  0.16146377  0.83844755     0.25600
C1217       C  0.97752274  0.16368370  0.84201871    -0.22400
C1218       C  0.95991201  0.16845189  0.87454420     0.20500
F1219       F  0.91588309  0.17135200  0.87944014    -0.12400
F1220       F  0.96860569  0.17063044  0.93395716    -0.14700
F1221       F  0.54219194  0.15775331  0.80758780    -0.14700
F1222       F  0.59468377  0.15667495  0.86254623    -0.12400
C1223       C  0.94384928  0.16174228  0.61511128     0.25700
C1224       C  0.96157562  0.16554621  0.64765444    -0.22500
C1225       C  0.50608322  0.17385303  0.65076638     0.20600
C1226       C  0.53344267  0.17490496  0.62237784     0.25600
C1227       C  0.51689671  0.16725989  0.59023077    -0.22400
C1228       C  0.97123535  0.16252614  0.58670305     0.20500
F1229       F  0.95330494  0.15666315  0.55602574    -0.12400
F1230       F  0.90072699  0.15454850  0.61087869    -0.14700
F1231       F  0.57680692  0.18107455  0.62699929    -0.14700
F1232       F  0.52371971  0.17951899  0.68158585    -0.12400
C1233       C  0.71486561  0.07110543  0.88067953     0.25700
C1234       C  0.73262394  0.08009211  0.91186371    -0.22500
C1235       C  0.77745881  0.08731370  0.91403675     0.20600
C1236       C  0.80317106  0.08872267  0.88481714     0.25600
C1237       C  0.78443509  0.08258652  0.85311804    -0.22400
C1238       C  0.74084239  0.07198887  0.85142011     0.20500
F1239       F  0.72206564  0.06598119  0.82108980    -0.12400
F1240       F  0.67133896  0.06449276  0.87806609    -0.14700
F1241       F  0.84551457  0.09851655  0.88707532    -0.14700
F1242       F  0.79504904  0.09640590  0.94384127    -0.12400
C1243       C  0.71689290  0.09416250  0.66607065     0.25700
C1244       C  0.75922540  0.08133711  0.66499148    -0.22500
C1245       C  0.77399543  0.06732189  0.63520784     0.20600
C1246       C  0.74837478  0.06895800  0.60578290     0.25600
C1247       C  0.70825039  0.08517452  0.60595225    -0.22400
C1248       C  0.69153959  0.09607514  0.63678496     0.20500
F1249       F  0.65196075  0.11068471  0.63800721    -0.12400
F1250       F  0.70204145  0.10775762  0.69467568    -0.14700
F1251       F  0.76494553  0.05780532  0.57649714    -0.14700
F1252       F  0.81513893  0.05515864  0.63368402    -0.12400
C1253       C  0.54604109  0.49905671  0.98087173     0.25700
C1254       C  0.53551762  0.02435313  0.00142975    -0.22500
C1255       C  0.99752187  0.02297722  0.52168839     0.20600
C1256       C  0.97030297  0.99690893  0.52119465     0.25600
C1257       C  0.97991894  0.47207012  0.99974997    -0.22400
C1258       C  0.51809017  0.47328317  0.97966669     0.20500
F1259       F  0.52871467  0.44927206  0.95934831    -0.12400
F1260       F  0.58257045  0.49973456  0.96114091    -0.14700
F1261       F  0.93380238  0.99634599  0.54097527    -0.14700
F1262       F  0.98701803  0.04681522  0.54230019    -0.12400
C1263       C  0.71703475  0.24969532  0.51929938     0.25700
C1264       C  0.72713174  0.22337807  0.00026130    -0.22500
C1265       C  0.76649807  0.22282937  0.98154101     0.20600
C1266       C  0.79514943  0.24828266  0.98174357     0.25600
C1267       C  0.78426783  0.27505077  0.99990834    -0.22400
C1268       C  0.74501368  0.27541520  0.51879267     0.20500
F1269       F  0.73396271  0.30061544  0.53720781    -0.12400
F1270       F  0.67936176  0.25087783  0.53767714    -0.14700
F1271       F  0.83285130  0.24708520  0.96340270    -0.14700
F1272       F  0.77761225  0.19738291  0.96356241    -0.12400
Zn1273     Zn  0.56298329  0.62309917  0.99820106     1.49700
Zn1274     Zn  0.64161615  0.65027752  0.03979388     1.49400
Zn1275     Zn  0.65270347  0.58313833  0.50379913     1.49100
Zn1276     Zn  0.64956446  0.64678976  0.46061589     1.49500
O1277       O  0.62692710  0.62547664  0.00059231    -1.82100
O1278       O  0.53326610  0.64374986  0.03744731    -0.72700
O1279       O  0.67272074  0.62305060  0.07281833    -0.72500
O1280       O  0.60450398  0.55060748  0.50158132    -0.72000
O1281       O  0.58838249  0.66493407  0.06532851    -0.72700
O1282       O  0.54325056  0.57880313  0.00001486    -0.72300
O1283       O  0.68373132  0.57712174  0.04918043    -0.72900
O1284       O  0.68705690  0.61809573  0.43431156    -0.72300
O1285       O  0.68079171  0.68679252  0.02808781    -0.73000
O1286       O  0.69487220  0.57470231  0.46462888    -0.72400
O1287       O  0.68794863  0.68342921  0.47240690    -0.72900
O1288       O  0.60087827  0.65964950  0.42894209    -0.72800
O1289       O  0.54104210  0.64160422  0.45463338    -0.72600
C1290       C  0.54757562  0.65906919  0.06241303     0.79200
C1291       C  0.68707563  0.59537192  0.07418868     0.79700
C1292       C  0.56267423  0.55267668  0.50094643     0.78600
C1293       C  0.70306713  0.59114239  0.43843057     0.79000
C1294       C  0.69699236  0.69649404  0.00024555     0.80200
C1295       C  0.55954339  0.65491776  0.42953029     0.79200
Zn1296     Zn  0.89763512  0.89718616  0.03777581     1.49700
Zn1297     Zn  0.81571569  0.87341415  0.49734375     1.49400
Zn1298     Zn  0.90111916  0.89692599  0.45805583     1.49100
Zn1299     Zn  0.90432891  0.83166783  0.49887743     1.49500
O1300       O  0.87987436  0.87441629  0.49788055    -1.82100
O1301       O  0.84688196  0.91089911  0.06604526    -0.72700
O1302       O  0.79196663  0.89383853  0.45523494    -0.72500
O1303       O  0.94070375  0.93286038  0.47054765    -0.72000
O1304       O  0.78899023  0.89343609  0.03835044    -0.72700
O1305       O  0.93522140  0.93412304  0.02644641    -0.72300
O1306       O  0.85094272  0.91184027  0.42848186    -0.72900
O1307       O  0.94274156  0.82370151  0.45753667    -0.72300
O1308       O  0.79451056  0.82939179  0.49824534    -0.73000
O1309       O  0.93640427  0.86842348  0.42935709    -0.72400
O1310       O  0.85458394  0.79994144  0.49865799    -0.72900
O1311       O  0.94082738  0.82449107  0.04165537    -0.72800
O1312       O  0.93230660  0.86948763  0.06790141    -0.72600
C1313       C  0.80562003  0.90681970  0.06382165     0.79200
C1314       C  0.80946332  0.90782810  0.43013223     0.79700
C1315       C  0.95040969  0.94491552  0.49881188     0.78600
C1316       C  0.95083241  0.84084127  0.43186509     0.79000
C1317       C  0.81279048  0.80284917  0.49878466     0.80200
C1318       C  0.94735992  0.84206319  0.06685251     0.79200
Zn1319     Zn  0.84670559  0.64668748  0.21062275     1.48500
Zn1320     Zn  0.93424505  0.62446533  0.24642216     1.49400
Zn1321     Zn  0.85392428  0.64852194  0.28989208     1.49100
Zn1322     Zn  0.84622646  0.58223424  0.25307312     1.49500
O1323       O  0.87014876  0.62506812  0.25003816    -1.82100
O1324       O  0.89378177  0.65850678  0.17708805    -0.72700
O1325       O  0.96319920  0.64327912  0.28725187    -0.72500
O1326       O  0.81689784  0.68630724  0.27874163    -0.72000
O1327       O  0.95545525  0.64551796  0.20363557    -0.72700
O1328       O  0.81240249  0.68469977  0.22291523    -0.72300
O1329       O  0.90673408  0.66120102  0.31647788    -0.72900
O1330       O  0.81368086  0.57514403  0.29766417    -0.72300
O1331       O  0.95556952  0.58047839  0.24493279    -0.73000
O1332       O  0.82066636  0.62121631  0.32176817    -0.72400
O1333       O  0.89619022  0.55093743  0.25122053    -0.72900
O1334       O  0.80386058  0.57375810  0.21411261    -0.72800
O1335       O  0.80521074  0.61915892  0.18682606    -0.72600
C1336       C  0.93555007  0.65670681  0.17793885     0.79200
C1337       C  0.94780049  0.65643442  0.31334926     0.79700
C1338       C  0.80292614  0.69743455  0.25080288     0.78600
C1339       C  0.80745994  0.59327204  0.32242456     0.79000
C1340       C  0.93769955  0.55390529  0.24765709     0.80200
C1341       C  0.79124475  0.59157566  0.19011014     0.79200
Zn1342     Zn  0.68820255  0.87647095  0.24900550     1.49700
Zn1343     Zn  0.60001222  0.83425995  0.24875348     1.49400
Zn1344     Zn  0.60398716  0.89879780  0.28916828     1.49100
Zn1345     Zn  0.60394540  0.89992489  0.20924934     1.49500
O1346       O  0.62391312  0.87703494  0.24908683    -1.82100
O1347       O  0.71025089  0.83259756  0.25130686    -0.72700
O1348       O  0.56387362  0.82518608  0.29132374    -0.72500
O1349       O  0.65465498  0.91349492  0.31779022    -0.72000
O1350       O  0.65023105  0.80328572  0.24761799    -0.72700
O1351       O  0.71339699  0.89759457  0.28970430    -0.72300
O1352       O  0.57099395  0.86954838  0.31895105    -0.72900
O1353       O  0.56787650  0.93737500  0.22131035    -0.72300
O1354       O  0.56214889  0.82693495  0.20713843    -0.73000
O1355       O  0.56351459  0.93466114  0.27732528    -0.72400
O1356       O  0.56719144  0.87250436  0.18054019    -0.72900
O1357       O  0.65363183  0.91268368  0.17900122    -0.72800
O1358       O  0.71272044  0.89543199  0.20609566    -0.72600
C1359       C  0.69187875  0.80618461  0.24971659     0.79200
C1360       C  0.55705331  0.84186690  0.31719077     0.79700
C1361       C  0.69619157  0.91035703  0.31536085     0.78600
C1362       C  0.55333596  0.94748439  0.24925465     0.79000
C1363       C  0.55348412  0.84472177  0.18212002     0.80200
C1364       C  0.69494586  0.90834160  0.18041418     0.79200
C1365       C  0.50598449  0.52650233  0.22872505     0.25700
C1366       C  0.96631972  0.52609418  0.24715986    -0.22500
C1367       C  0.95543518  0.99940627  0.26615599     0.20600
C1368       C  0.98416543  0.97401753  0.26733303     0.25600
C1369       C  0.52367250  0.97455360  0.24888966    -0.22400
C1370       C  0.53410821  0.50084887  0.22931289     0.20500
F1371       F  0.57216145  0.50199229  0.21136726    -0.12400
F1372       F  0.51735308  0.55161990  0.20970962    -0.14700
F1373       F  0.97291671  0.94859189  0.28588479    -0.14700
F1374       F  0.91756076  0.99815549  0.28430429    -0.12400
C1375       C  0.75127663  0.77398087  0.27584012     0.25700
C1376       C  0.71983045  0.77830790  0.25023317    -0.22500
C1377       C  0.71608945  0.75624692  0.22466325     0.20600
C1378       C  0.74353285  0.73021419  0.22457310     0.25600
C1379       C  0.77459792  0.72542519  0.25057746    -0.22400
C1380       C  0.77803400  0.74756791  0.27630170     0.20500
F1381       F  0.80794592  0.74404441  0.30151397    -0.12400
F1382       F  0.75557101  0.79514289  0.30074204    -0.14700
F1383       F  0.73915649  0.70947090  0.19926227    -0.14700
F1384       F  0.68671293  0.76040867  0.19918129    -0.12400
C1385       C  0.52419647  0.83014991  0.40733987     0.25700
C1386       C  0.97827880  0.82957838  0.40405340    -0.22500
C1387       C  0.95946248  0.82593952  0.37192127     0.20600
C1388       C  0.98612995  0.82577616  0.34308511     0.25600
C1389       C  0.53168924  0.83003181  0.34617154    -0.22400
C1390       C  0.55077861  0.83065491  0.37849960     0.20500
F1391       F  0.59487140  0.83458163  0.38196328    -0.12400
F1392       F  0.54296146  0.83380731  0.43814823    -0.14700
F1393       F  0.96706737  0.82520027  0.31210178    -0.14700
F1394       F  0.91504688  0.82543693  0.36831328    -0.12400
C1395       C  0.95469215  0.83090792  0.12808315     0.25700
C1396       C  0.97389973  0.83169165  0.09577469    -0.22500
C1397       C  0.51982709  0.83070929  0.09266200     0.20600
C1398       C  0.54627262  0.83201926  0.12151244     0.25600
C1399       C  0.52699805  0.83369840  0.15371234    -0.22400
C1400       C  0.98116392  0.83161920  0.15696500     0.20500
F1401       F  0.96198123  0.83371735  0.18782252    -0.12400
F1402       F  0.91027722  0.83226218  0.13152119    -0.14700
F1403       F  0.59058691  0.83434391  0.11792822    -0.14700
F1404       F  0.53893635  0.83216043  0.06168937    -0.12400
C1405       C  0.70734910  0.92010493  0.37717691     0.25700
C1406       C  0.72488351  0.91872842  0.34426345    -0.22500
C1407       C  0.77089458  0.92030356  0.34021621     0.20600
C1408       C  0.79871531  0.91960211  0.36837441     0.25600
C1409       C  0.78108845  0.91718876  0.40121378    -0.22400
C1410       C  0.73515798  0.91928827  0.40530212     0.20500
F1411       F  0.71684998  0.91872481  0.43658832    -0.12400
F1412       F  0.66321069  0.91950384  0.38246153    -0.14700
F1413       F  0.84285382  0.91861223  0.36317446    -0.14700
F1414       F  0.78920887  0.92060541  0.30893449    -0.12400
C1415       C  0.79524086  0.91890927  0.12518868     0.25700
C1416       C  0.77699136  0.91521547  0.09271643    -0.22500
C1417       C  0.73088846  0.91528904  0.08929510     0.20600
C1418       C  0.70385114  0.91574146  0.11786286     0.25600
C1419       C  0.72239393  0.91593548  0.15050211    -0.22400
C1420       C  0.76821058  0.91912451  0.15373328     0.20500
F1421       F  0.78717614  0.92090104  0.18469333    -0.12400
F1422       F  0.83948038  0.91990438  0.12980698    -0.14700
F1423       F  0.65967135  0.91340029  0.11345879    -0.14700
F1424       F  0.71181544  0.91322265  0.05839380    -0.12400
C1425       C  0.98712817  0.66780955  0.40292973     0.25700
C1426       C  0.53259341  0.66282633  0.39953499    -0.22500
C1427       C  0.55081497  0.66118331  0.36691023     0.20600
C1428       C  0.52353798  0.66144176  0.33844857     0.25600
C1429       C  0.97750143  0.66365331  0.34201936    -0.22400
C1430       C  0.95989245  0.66841674  0.37454611     0.20500
F1431       F  0.91586331  0.67131254  0.37944423    -0.12400
F1432       F  0.96858964  0.67059304  0.43395884    -0.14700
F1433       F  0.54216901  0.65773732  0.30758768    -0.14700
F1434       F  0.59466466  0.65665991  0.36254416    -0.12400
C1435       C  0.94382511  0.66173187  0.11510352     0.25700
C1436       C  0.96154672  0.66553590  0.14764818    -0.22500
C1437       C  0.50605444  0.67385005  0.15076220     0.20600
C1438       C  0.53341658  0.67490709  0.12237521     0.25600
C1439       C  0.51687541  0.66726165  0.09022667    -0.22400
C1440       C  0.97121422  0.66252158  0.08669699     0.20500
F1441       F  0.95328867  0.65665938  0.05601780    -0.12400
F1442       F  0.90070506  0.65453334  0.11086750    -0.14700
F1443       F  0.57677851  0.68108221  0.12699927    -0.14700
F1444       F  0.52368687  0.67951734  0.18158280    -0.12400
C1445       C  0.71485332  0.57107924  0.38067604     0.25700
C1446       C  0.73260889  0.58007852  0.41185672    -0.22500
C1447       C  0.77744050  0.58730951  0.41402715     0.20600
C1448       C  0.80315171  0.58871563  0.38480757     0.25600
C1449       C  0.78441771  0.58256837  0.35311074    -0.22400
C1450       C  0.74082982  0.57195993  0.35141616     0.20500
F1451       F  0.72205652  0.56593822  0.32108799    -0.12400
F1452       F  0.67132955  0.56445609  0.37806549    -0.14700
F1453       F  0.84549118  0.59851879  0.38706259    -0.14700
F1454       F  0.79502732  0.59641344  0.44382845    -0.12400
C1455       C  0.71684929  0.59418529  0.16608224     0.25700
C1456       C  0.75916706  0.58133535  0.16500936    -0.22500
C1457       C  0.77392103  0.56729910  0.13523335     0.20600
C1458       C  0.74830543  0.56894223  0.10580657     0.25600
C1459       C  0.70820312  0.58518608  0.10596688    -0.22400
C1460       C  0.69150119  0.59610476  0.13679480     0.20500
F1461       F  0.65193928  0.61073766  0.13801027    -0.12400
F1462       F  0.70201126  0.60779696  0.19468198    -0.14700
F1463       F  0.76486406  0.55776802  0.07652678    -0.14700
F1464       F  0.81504932  0.55510953  0.13371686    -0.12400
C1465       C  0.54605126  0.99903056  0.48091226     0.25700
C1466       C  0.53551059  0.52433931  0.50144847    -0.22500
C1467       C  0.99754935  0.52297845  0.02169289     0.20600
C1468       C  0.97033610  0.49690712  0.02120212     0.25600
C1469       C  0.97990159  0.97206182  0.49976097    -0.22400
C1470       C  0.51809541  0.97325972  0.47970338     0.20500
F1471       F  0.52873651  0.94923681  0.45940640    -0.12400
F1472       F  0.58260325  0.99969338  0.46120573    -0.14700
F1473       F  0.93385601  0.49633189  0.04100478    -0.14700
F1474       F  0.98706111  0.54680676  0.04232248    -0.12400
C1475       C  0.71690701  0.74976848  0.01916109     0.25700
C1476       C  0.72714203  0.72336593  0.50026097    -0.22500
C1477       C  0.76640846  0.72287420  0.48141255     0.20600
C1478       C  0.79506709  0.74832337  0.48161979     0.25600
C1479       C  0.78428913  0.77503252  0.49991880    -0.22400
C1480       C  0.74488151  0.77549048  0.01864928     0.20500
F1481       F  0.73371423  0.80074757  0.03693168    -0.12400
F1482       F  0.67912694  0.75100454  0.03740425    -0.14700
F1483       F  0.83266773  0.74718527  0.46315216    -0.14700
F1484       F  0.77742181  0.69748666  0.46330056    -0.12400
Zn1485     Zn  0.56298414  0.62308512  0.49820610     1.49700
Zn1486     Zn  0.64162951  0.65025925  0.53979305     1.49400
Zn1487     Zn  0.65270451  0.58315457  0.00380032     1.49100
Zn1488     Zn  0.64957181  0.64680067  0.96061824     1.49500
O1489       O  0.62692870  0.62546167  0.50059193    -1.82100
O1490       O  0.53327557  0.64374391  0.53745130    -0.72700
O1491       O  0.67274297  0.62303341  0.57281337    -0.72500
O1492       O  0.60450785  0.55062355  0.00156803    -0.72000
O1493       O  0.58840126  0.66491870  0.56533092    -0.72700
O1494       O  0.54324933  0.57878935  0.50002835    -0.72300
O1495       O  0.68375733  0.57710731  0.54917064    -0.72900
O1496       O  0.68706191  0.61810650  0.93431409    -0.72300
O1497       O  0.68080887  0.68677085  0.52808563    -0.73000
O1498       O  0.69489295  0.57472005  0.96464001    -0.72400
O1499       O  0.68796166  0.68343429  0.97241141    -0.72900
O1500       O  0.60089102  0.65966721  0.92894444    -0.72800
O1501       O  0.54104837  0.64162550  0.95463028    -0.72600
C1502       C  0.54759194  0.65906099  0.56241632     0.79200
C1503       C  0.68710695  0.59535701  0.57417896     0.79700
C1504       C  0.56267800  0.55269160  0.00093040     0.78600
C1505       C  0.70308204  0.59115691  0.93843808     0.79000
C1506       C  0.69699609  0.69648168  0.50024259     0.80200
C1507       C  0.55955527  0.65493992  0.92953006     0.79200
Zn1508     Zn  0.89761242  0.89718101  0.53778194     1.49700
Zn1509     Zn  0.81573470  0.87342953  0.99733419     1.49400
Zn1510     Zn  0.90114456  0.89692680  0.95805004     1.49100
Zn1511     Zn  0.90432999  0.83166837  0.99887559     1.49500
O1512       O  0.87989219  0.87442195  0.99787505    -1.82100
O1513       O  0.84685667  0.91089766  0.56604434    -0.72700
O1514       O  0.79199157  0.89386051  0.95522839    -0.72500
O1515       O  0.94072708  0.93286275  0.97053967    -0.72000
O1516       O  0.78896583  0.89342646  0.53835479    -0.72700
O1517       O  0.93520112  0.93411636  0.52645493    -0.72300
O1518       O  0.85097537  0.91183963  0.92846813    -0.72900
O1519       O  0.94273670  0.82369196  0.95753403    -0.72300
O1520       O  0.79451602  0.82941127  0.99822266    -0.73000
O1521       O  0.93642831  0.86841865  0.92935929    -0.72400
O1522       O  0.85457530  0.79994983  0.99866552    -0.72900
O1523       O  0.94082504  0.82449300  0.54166063    -0.72800
O1524       O  0.93227974  0.86948407  0.56791283    -0.72600
C1525       C  0.80559533  0.90681649  0.56382208     0.79200
C1526       C  0.80949400  0.90783891  0.93012102     0.79700
C1527       C  0.95043031  0.94492116  0.99880292     0.78600
C1528       C  0.95084085  0.84083232  0.93186548     0.79000
C1529       C  0.81278273  0.80286420  0.99877663     0.80200
C1530       C  0.94734469  0.84206276  0.56686191     0.79200
Zn1531     Zn  0.84673379  0.64669808  0.71062528     1.48500
Zn1532     Zn  0.93427192  0.62447693  0.74642930     1.49400
Zn1533     Zn  0.85394906  0.64853551  0.78989596     1.49100
Zn1534     Zn  0.84624876  0.58224782  0.75307987     1.49500
O1535       O  0.87017458  0.62508019  0.75004300    -1.82100
O1536       O  0.89381295  0.65852455  0.67709758    -0.72700
O1537       O  0.96322356  0.64329819  0.78725583    -0.72500
O1538       O  0.81691634  0.68631569  0.77874280    -0.72000
O1539       O  0.95548531  0.64552473  0.70364024    -0.72700
O1540       O  0.81241716  0.68470512  0.72291655    -0.72300
O1541       O  0.90675662  0.66122352  0.81647725    -0.72900
O1542       O  0.81369479  0.57516271  0.79766975    -0.72300
O1543       O  0.95559504  0.58048887  0.74494919    -0.73000
O1544       O  0.82069622  0.62123179  0.82177800    -0.72400
O1545       O  0.89621317  0.55095043  0.75123799    -0.72900
O1546       O  0.80389444  0.57376806  0.71411042    -0.72800
O1547       O  0.80525659  0.61916464  0.68681595    -0.72600
C1548       C  0.93558086  0.65671890  0.67794608     0.79200
C1549       C  0.94782306  0.65645824  0.81334991     0.79700
C1550       C  0.80294024  0.69744000  0.75080404     0.78600
C1551       C  0.80748140  0.59328950  0.82243252     0.79000
C1552       C  0.93772277  0.55391633  0.74767672     0.80200
C1553       C  0.79129097  0.59158130  0.69009998     0.79200
Zn1554     Zn  0.68820333  0.87647050  0.74900323     1.49700
Zn1555     Zn  0.60001626  0.83425855  0.74875866     1.49400
Zn1556     Zn  0.60399901  0.89879699  0.78917724     1.49100
Zn1557     Zn  0.60393570  0.89992352  0.70925738     1.49500
O1558       O  0.62391431  0.87703387  0.74909205    -1.82100
O1559       O  0.71025489  0.83259817  0.75130238    -0.72700
O1560       O  0.56388354  0.82518648  0.79133081    -0.72500
O1561       O  0.65467477  0.91349491  0.81779166    -0.72000
O1562       O  0.65023585  0.80328473  0.74762245    -0.72700
O1563       O  0.71340871  0.89759390  0.78969716    -0.72300
O1564       O  0.57101127  0.86954606  0.81896293    -0.72900
O1565       O  0.56786886  0.93737248  0.72132446    -0.72300
O1566       O  0.56214726  0.82693170  0.70714550    -0.73000
O1567       O  0.56352431  0.93466174  0.77734036    -0.72400
O1568       O  0.56717715  0.87250319  0.68055033    -0.72900
O1569       O  0.65361535  0.91268672  0.67900494    -0.72800
O1570       O  0.71270896  0.89543449  0.70609256    -0.72600
C1571       C  0.69188376  0.80618471  0.74971662     0.79200
C1572       C  0.55706796  0.84186526  0.81720012     0.79700
C1573       C  0.69621095  0.91035723  0.81535584     0.78600
C1574       C  0.55333764  0.94748387  0.74927086     0.79000
C1575       C  0.55347412  0.84471957  0.68212938     0.80200
C1576       C  0.69492980  0.90834624  0.68041431     0.79200
C1577       C  0.50599706  0.52650535  0.72874436     0.25700
C1578       C  0.96634123  0.52610407  0.74718300    -0.22500
C1579       C  0.95545136  0.99941633  0.76617778     0.20600
C1580       C  0.98417664  0.97402463  0.76735297     0.25600
C1581       C  0.52367859  0.97455560  0.74890889    -0.22400
C1582       C  0.53411606  0.50084937  0.72933065     0.20500
F1583       F  0.57216590  0.50198843  0.71138049    -0.12400
F1584       F  0.51736693  0.55162088  0.70972625    -0.14700
F1585       F  0.97292233  0.94859858  0.78590212    -0.14700
F1586       F  0.91757592  0.99816796  0.78432483    -0.12400
C1587       C  0.75128811  0.77398569  0.77583817     0.25700
C1588       C  0.71983675  0.77830865  0.75023409    -0.22500
C1589       C  0.71609116  0.75624404  0.72466830     0.20600
C1590       C  0.74353628  0.73021216  0.72457854     0.25600
C1591       C  0.77460778  0.72542818  0.75057920    -0.22400
C1592       C  0.77804695  0.74757355  0.77630034     0.20500
F1593       F  0.80796352  0.74405371  0.80150995    -0.12400
F1594       F  0.75558572  0.79515053  0.80073695    -0.14700
F1595       F  0.73915494  0.70946470  0.69927237    -0.14700
F1596       F  0.68670844  0.76040140  0.69918975    -0.12400
C1597       C  0.52420602  0.83013348  0.90734673     0.25700
C1598       C  0.97828291  0.82956551  0.90405368    -0.22500
C1599       C  0.95946692  0.82594254  0.87191925     0.20600
C1600       C  0.98613575  0.82578338  0.84308422     0.25600
C1601       C  0.53170180  0.83002866  0.84617867    -0.22400
C1602       C  0.55078993  0.83064303  0.87850741     0.20500
F1603       F  0.59488319  0.83456560  0.88197353    -0.12400
F1604       F  0.54296941  0.83378268  0.93815686    -0.14700
F1605       F  0.96707465  0.82522496  0.81209974    -0.14700
F1606       F  0.91505130  0.82545361  0.86830884    -0.12400
C1607       C  0.95467793  0.83091647  0.62809546     0.25700
C1608       C  0.97388407  0.83169323  0.59578619    -0.22500
C1609       C  0.51981027  0.83069912  0.59267359     0.20600
C1610       C  0.54625676  0.83200787  0.62152393     0.25600
C1611       C  0.52698335  0.83369639  0.65372368    -0.22400
C1612       C  0.98115109  0.83162720  0.65697678     0.20500
F1613       F  0.96197031  0.83373150  0.68783445    -0.12400
F1614       F  0.91026350  0.83227656  0.63153452    -0.14700
F1615       F  0.59057208  0.83432225  0.61793944    -0.14700
F1616       F  0.53892033  0.83214049  0.56170083    -0.12400
C1617       C  0.70738183  0.92012526  0.87716705     0.25700
C1618       C  0.72491131  0.91873068  0.84425319    -0.22500
C1619       C  0.77092333  0.92029120  0.84020238     0.20600
C1620       C  0.79874676  0.91959266  0.86835908     0.25600
C1621       C  0.78112216  0.91719791  0.90120044    -0.22400
C1622       C  0.73519342  0.91931206  0.90529064     0.20500
F1623       F  0.71688886  0.91876642  0.93657817    -0.12400
F1624       F  0.66324378  0.91953904  0.88245521    -0.14700
F1625       F  0.84288413  0.91858648  0.86315696    -0.14700
F1626       F  0.78923502  0.92057555  0.80891978    -0.12400
C1627       C  0.79521967  0.91891199  0.62518659     0.25700
C1628       C  0.77696785  0.91521726  0.59271536    -0.22500
C1629       C  0.73086501  0.91529527  0.58929479     0.20600
C1630       C  0.70382892  0.91575247  0.61786330     0.25600
C1631       C  0.72237416  0.91594395  0.65050175    -0.22400
C1632       C  0.76819102  0.91913076  0.65373153     0.20500
F1633       F  0.78715862  0.92090716  0.68469089    -0.12400
F1634       F  0.83945952  0.91990273  0.62980407    -0.14700
F1635       F  0.65964799  0.91341847  0.61346100    -0.14700
F1636       F  0.71179071  0.91322823  0.55839399    -0.12400
C1637       C  0.98714476  0.66784279  0.90292889     0.25700
C1638       C  0.53261056  0.66285347  0.89953416    -0.22500
C1639       C  0.55083438  0.66120592  0.86691045     0.20600
C1640       C  0.52355929  0.66146447  0.83844799     0.25600
C1641       C  0.97752241  0.66368292  0.84201871    -0.22400
C1642       C  0.95991130  0.66845058  0.87454416     0.20500
F1643       F  0.91588233  0.67135019  0.87944000    -0.12400
F1644       F  0.96860457  0.67062905  0.93395717    -0.14700
F1645       F  0.54219143  0.65775471  0.80758822    -0.14700
F1646       F  0.59468321  0.65667679  0.86254675    -0.12400
C1647       C  0.94384927  0.66174146  0.61511080     0.25700
C1648       C  0.96157538  0.66554576  0.64765389    -0.22500
C1649       C  0.50608302  0.67385330  0.65076616     0.20600
C1650       C  0.53344273  0.67490533  0.62237766     0.25600
C1651       C  0.51689668  0.66725983  0.59023068    -0.22400
C1652       C  0.97123531  0.66252533  0.58670261     0.20500
F1653       F  0.95330501  0.65666179  0.55602538    -0.12400
F1654       F  0.90072711  0.65454715  0.61087828    -0.14700
F1655       F  0.57680674  0.68107521  0.62699907    -0.14700
F1656       F  0.52371947  0.67951968  0.68158565    -0.12400
C1657       C  0.71486494  0.57110623  0.88067924     0.25700
C1658       C  0.73262333  0.58009308  0.91186334    -0.22500
C1659       C  0.77745814  0.58731476  0.91403631     0.20600
C1660       C  0.80317039  0.58872349  0.88481668     0.25600
C1661       C  0.78443445  0.58258710  0.85311760    -0.22400
C1662       C  0.74084170  0.57198940  0.85141979     0.20500
F1663       F  0.72206492  0.56598147  0.82108953    -0.12400
F1664       F  0.67133829  0.56449343  0.87806592    -0.14700
F1665       F  0.84551385  0.59851751  0.88707480    -0.14700
F1666       F  0.79504838  0.59640706  0.94384081    -0.12400
C1667       C  0.71689285  0.59416187  0.66607047     0.25700
C1668       C  0.75922539  0.58133654  0.66499133    -0.22500
C1669       C  0.77399540  0.56732128  0.63520765     0.20600
C1670       C  0.74837490  0.56895765  0.60578270     0.25600
C1671       C  0.70825055  0.58517414  0.60595204    -0.22400
C1672       C  0.69153961  0.59607458  0.63678481     0.20500
F1673       F  0.65196086  0.61068419  0.63800709    -0.12400
F1674       F  0.70204134  0.60775679  0.69467564    -0.14700
F1675       F  0.76494572  0.55780505  0.57649692    -0.14700
F1676       F  0.81513890  0.55515797  0.63368388    -0.12400
C1677       C  0.54604032  0.99905651  0.98087127     0.25700
C1678       C  0.53551797  0.52435345  0.00142986    -0.22500
C1679       C  0.99752180  0.52297677  0.52168846     0.20600
C1680       C  0.97030281  0.49690861  0.52119482     0.25600
C1681       C  0.97991834  0.97207033  0.99974939    -0.22400
C1682       C  0.51808931  0.97328300  0.97966642     0.20500
F1683       F  0.52871345  0.94927197  0.95934784    -0.12400
F1684       F  0.58256931  0.99973441  0.96114007    -0.14700
F1685       F  0.93380221  0.49634570  0.54097552    -0.14700
F1686       F  0.98701812  0.54681477  0.54230036    -0.12400
C1687       C  0.71702847  0.74969831  0.51929250     0.25700
C1688       C  0.72713159  0.72337844  0.00026185    -0.22500
C1689       C  0.76649557  0.72283094  0.98153882     0.20600
C1690       C  0.79514725  0.74828407  0.98174127     0.25600
C1691       C  0.78426778  0.77505104  0.99990902    -0.22400
C1692       C  0.74500706  0.77541842  0.51878574     0.20500
F1693       F  0.73395004  0.80062135  0.53719447    -0.12400
F1694       F  0.67935011  0.75088327  0.53766362    -0.14700
F1695       F  0.83284688  0.74708789  0.96339772    -0.14700
F1696       F  0.77760762  0.69738570  0.96355734    -0.12400
loop_ 
_geom_bond_atom_site_label_1 
_geom_bond_atom_site_label_2 
_geom_bond_distance 
_geom_bond_site_symmetry_2 
_ccdc_geom_bond_type 
Zn1           O5   1.949   1_556  S
Zn1           O6   2.014   1_556  S
Zn1          O10   2.005   1_556  S
Zn1         O229   2.008       .  S
Zn2           O5   1.948       .  S
Zn2           O7   1.988       .  S
Zn2           O9   2.013       .  S
Zn2          O13   2.026       .  S
Zn3         O217   1.990       .  S
Zn3           O8   2.033       .  S
Zn3          O14   2.048       .  S
Zn3         O223   2.044       .  S
Zn4         O217   1.948       .  S
Zn4          O12   1.986       .  S
Zn4          O15   2.025       .  S
Zn4          O16   2.014       .  S
O5         Zn215   1.990       .  S
O5         Zn216   1.948   1_554  S
O6           C18   1.272       .  A
O7           C19   1.272       .  A
O8           C20   1.275       .  A
O9           C18   1.272       .  A
O10         C232   1.272       .  A
O11        Zn215   2.044       .  S
O11          C19   1.276       .  A
O12          C21   1.270       .  A
O13          C22   1.274       .  A
O14          C21   1.275       .  A
O15         C234   1.274       .  A
O16          C23   1.273       .  A
O17        Zn213   2.008       .  S
O17          C23   1.274       .  A
C18         C167   1.489       .  S
C19         C187   1.476       .  S
C20         O222   1.272       .  A
C20         C194   1.476       .  S
C21         C174   1.467       .  S
C22         O227   1.274   1_554  A
C22         C416   1.479       .  S
C23         C154   1.480       .  S
Zn24        O240   1.947   1_554  S
Zn24         O29   1.999       .  S
Zn24         O33   2.009       .  S
Zn24         O40   1.983       .  S
Zn25         O28   1.951       .  S
Zn25         O30   2.012       .  S
Zn25         O36   2.007       .  S
Zn25        O244   2.018       .  S
Zn26         O28   1.953       .  S
Zn26         O31   2.030       .  S
Zn26         O34   2.024       .  S
Zn26         O37   1.996       .  S
Zn27         O28   1.989       .  S
Zn27         O35   2.043       .  S
Zn27         O38   2.041       .  S
Zn27        O251   2.046       .  S
O28        Zn236   1.947       .  S
O29          C41   1.270       .  A
O30          C42   1.274       .  A
O31          C43   1.274       .  A
O32        Zn237   2.018   1_554  S
O32          C41   1.273       .  A
O33         C255   1.272   1_554  A
O34          C42   1.274       .  A
O35          C44   1.275       .  A
O36          C45   1.273       .  A
O37          C44   1.271       .  A
O38          C45   1.276       .  A
O39        Zn239   2.046   1_554  S
O39          C46   1.276       .  A
O40          C46   1.270       .  A
C41         C144   1.485       .  S
C42         C137   1.486       .  S
C43         O245   1.272       .  A
C43         C197   1.477       .  S
C44         C114   1.468       .  S
C45         C207   1.481       .  S
C46         C124   1.467       .  S
Zn47         O51   1.945       .  S
Zn47         O52   2.014       .  S
Zn47         O56   2.008       .  S
Zn47         O63   1.980       .  S
Zn48         O51   1.954       .  S
Zn48         O53   2.020       .  S
Zn48         O55   2.020       .  S
Zn48         O59   2.007       .  S
Zn49         O51   1.948       .  S
Zn49         O54   2.026       .  S
Zn49         O57   2.000       .  S
Zn49         O60   1.993       .  S
Zn50         O51   1.990       .  S
Zn50         O58   2.044       .  S
Zn50         O61   2.034       .  S
Zn50         O62   2.046       .  S
O52          C64   1.272       .  A
O53          C65   1.274       .  A
O54          C66   1.274       .  A
O55          C64   1.274       .  A
O56          C66   1.272       .  A
O57          C65   1.271       .  A
O58          C67   1.275       .  A
O59          C68   1.273       .  A
O60          C67   1.272       .  A
O61          C68   1.276       .  A
O62          C69   1.275       .  A
O63          C69   1.270       .  A
C64         C164   1.483       .  S
C65         C157   1.487       .  S
C66         C107   1.483       .  S
C67         C177   1.473       .  S
C68          C94   1.482       .  S
C69         C184   1.465       .  S
Zn70         O74   1.954       .  S
Zn70         O75   2.009       .  S
Zn70         O79   2.012       .  S
Zn70         O86   2.021       .  S
Zn71         O74   1.985       .  S
Zn71         O76   2.046       .  S
Zn71         O78   2.029       .  S
Zn71         O82   2.038       .  S
Zn72         O74   1.949       .  S
Zn72         O77   2.019       .  S
Zn72         O80   1.990       .  S
Zn72         O83   2.027       .  S
Zn73         O74   1.949       .  S
Zn73         O81   2.014       .  S
Zn73         O84   1.994       .  S
Zn73         O85   2.001       .  S
O75          C87   1.272       .  A
O76          C88   1.275       .  A
O77          C89   1.273       .  A
O78          C87   1.275       .  A
O79          C89   1.273       .  A
O80          C88   1.271       .  A
O81          C90   1.273       .  A
O82          C91   1.274       .  A
O83          C90   1.275       .  A
O84          C91   1.271       .  A
O85          C92   1.271       .  A
O86          C92   1.274       .  A
C87         C104   1.472       .  S
C88         C117   1.470       .  S
C89         C134   1.487       .  S
C90          C97   1.475       .  S
C91         C127   1.467       .  S
C92         C147   1.483       .  S
C93          C98   1.398       .  A
C93         C942   1.409   1_455  A
C93         F100   1.358       .  S
C94         C941   1.409       .  A
C94         C519   1.409   1_545  A
C95          C96   1.401       .  A
C95         C518   1.409       .  A
C95         F102   1.358       .  S
C96         C945   1.405       .  A
C96         F101   1.358       .  S
C97         C944   1.405   1_455  A
C97         C522   1.404       .  A
C98         C521   1.404   1_545  A
C98          F99   1.358       .  S
C103        C104   1.405       .  A
C103        C108   1.400       .  A
C103        F110   1.358       .  S
C104        C105   1.402       .  A
C105        C106   1.399       .  A
C105        F112   1.358       .  S
C106        C107   1.411       .  A
C106        F111   1.358       .  S
C107        C108   1.409       .  A
C108        F109   1.358       .  S
C113        C118   1.399       .  A
C113        C962   1.402   1_455  A
C113        F120   1.358       .  S
C114        C115   1.406       .  A
C114        C961   1.402       .  A
C115        C116   1.400       .  A
C115        F122   1.358       .  S
C116        C965   1.403       .  A
C116        F121   1.358       .  S
C117        C118   1.406       .  A
C117        C964   1.403   1_455  A
C118        F119   1.358       .  S
C123        C124   1.406       .  A
C123        C128   1.399       .  A
C123        F130   1.358       .  S
C124        C973   1.402       .  A
C125        C126   1.399       .  A
C125        C972   1.402   1_455  A
C125        F132   1.358       .  S
C126        C127   1.406       .  A
C126        F131   1.358       .  S
C127        C976   1.402   1_455  A
C128        C975   1.402       .  A
C128        F129   1.358       .  S
C133        C134   1.410       .  A
C133        C138   1.399       .  A
C133        F140   1.358       .  S
C134        C135   1.409       .  A
C135        C136   1.400       .  A
C135        F142   1.358       .  S
C136        C137   1.409       .  A
C136        F141   1.358       .  S
C137        C138   1.408       .  A
C138        F139   1.358       .  S
C143        C144   1.411       .  A
C143        C148   1.397       .  A
C143        F150   1.358       .  S
C144        C145   1.408       .  A
C145        C146   1.399       .  A
C145        F152   1.358       .  S
C146        C147   1.410       .  A
C146        F151   1.358       .  S
C147        C148   1.405       .  A
C148        F149   1.358       .  S
C153        C158   1.396       .  A
C153       C1002   1.405       .  A
C153        F160   1.358       .  S
C154        C155   1.408       .  A
C154       C1001   1.405   1_455  A
C155        C156   1.399       .  A
C155        F162   1.358       .  S
C156       C1005   1.410   1_455  A
C156        F161   1.358       .  S
C157        C158   1.412       .  A
C157       C1004   1.410       .  A
C158        F159   1.358       .  S
C163        C164   1.408       .  A
C163        C168   1.400       .  A
C163        F170   1.358       .  S
C164       C1013   1.406       .  A
C165        C166   1.399       .  A
C165       C1012   1.406   1_455  A
C165        F172   1.358       .  S
C166        C167   1.412       .  A
C166        F171   1.358       .  S
C167       C1016   1.410   1_455  A
C168       C1015   1.410       .  A
C168        F169   1.358       .  S
C173        C174   1.407       .  A
C173        C178   1.402       .  A
C173        F180   1.358       .  S
C174        C175   1.401       .  A
C175        C176   1.397       .  A
C175        F182   1.358       .  S
C176        C177   1.407       .  A
C176        F181   1.358       .  S
C177        C178   1.404       .  A
C178        F179   1.358       .  S
C183        C184   1.401       .  A
C183        C188   1.394       .  A
C183        F190   1.358       .  S
C184        C185   1.405       .  A
C185        C186   1.403       .  A
C185        F192   1.357       .  S
C186        C187   1.406       .  A
C186        F191   1.357       .  S
C187        C188   1.408       .  A
C188        F189   1.359       .  S
C193        C198   1.402       .  A
C193        C618   1.406       .  A
C193        F200   1.358       .  S
C194        C617   1.406   1_545  A
C194       C1255   1.406   1_455  A
C195        C196   1.398   1_545  A
C195       C1254   1.406       .  A
C195        F202   1.358       .  S
C196        C833   1.405   1_554  A
C196        F201   1.358       .  S
C197        C832   1.405       .  A
C197       C1046   1.407       .  A
C198       C1045   1.407   1_455  A
C198        F199   1.358       .  S
C203        C208   1.399       .  A
C203        C416   1.404       .  A
C203        F210   1.358       .  S
C204        C234   1.479       .  S
C204        C205   1.408       .  A
C204        C415   1.405       .  A
C205        C206   1.403       .  A
C205        F212   1.358       .  S
C206        C207   1.407       .  A
C206        F211   1.358       .  S
C207        C420   1.409       .  A
C208        C419   1.409   1_554  A
C208        F209   1.358       .  S
Zn213       O217   1.949       .  S
Zn213       O218   2.014       .  S
Zn213       O222   2.005       .  S
Zn214       O217   1.948       .  S
Zn214       O219   1.988       .  S
Zn214       O221   2.013       .  S
Zn214       O225   2.026       .  S
Zn215       O220   2.033       .  S
Zn215       O226   2.048   1_554  S
Zn216       O224   1.986       .  S
Zn216       O227   2.025       .  S
Zn216       O228   2.014       .  S
O218        C230   1.272       .  A
O219        C231   1.272       .  A
O220        C232   1.275       .  A
O221        C230   1.272       .  A
O223        C231   1.276       .  A
O224        C233   1.270       .  A
O225        C234   1.274       .  A
O226        C233   1.275       .  A
O228        C235   1.273       .  A
O229        C235   1.274       .  A
C230        C379   1.489       .  S
C231        C399   1.476       .  S
C232        C406   1.476       .  S
C233        C386   1.467       .  S
C235        C366   1.480       .  S
Zn236       O241   1.999       .  S
Zn236       O245   2.009       .  S
Zn236       O252   1.983       .  S
Zn237       O240   1.951       .  S
Zn237       O242   2.012       .  S
Zn237       O248   2.007       .  S
Zn238       O240   1.953       .  S
Zn238       O243   2.029       .  S
Zn238       O246   2.024       .  S
Zn238       O249   1.996       .  S
Zn239       O240   1.989       .  S
Zn239       O247   2.043       .  S
Zn239       O250   2.041       .  S
O241        C253   1.270       .  A
O242        C254   1.274       .  A
O243        C255   1.274       .  A
O244        C253   1.273       .  A
O246        C254   1.274       .  A
O247        C256   1.275       .  A
O248        C257   1.273       .  A
O249        C256   1.271       .  A
O250        C257   1.276       .  A
O251        C258   1.276       .  A
O252        C258   1.270       .  A
C253        C356   1.485       .  S
C254        C349   1.486       .  S
C255        C409   1.477       .  S
C256        C326   1.468       .  S
C257        C419   1.482       .  S
C258        C336   1.467       .  S
Zn259       O263   1.945       .  S
Zn259       O264   2.014       .  S
Zn259       O268   2.008       .  S
Zn259       O275   1.980       .  S
Zn260       O263   1.954       .  S
Zn260       O265   2.020       .  S
Zn260       O267   2.020       .  S
Zn260       O271   2.007       .  S
Zn261       O263   1.948       .  S
Zn261       O266   2.026       .  S
Zn261       O269   2.000       .  S
Zn261       O272   1.993       .  S
Zn262       O263   1.990       .  S
Zn262       O270   2.044       .  S
Zn262       O273   2.034       .  S
Zn262       O274   2.046       .  S
O264        C276   1.272       .  A
O265        C277   1.274       .  A
O266        C278   1.274       .  A
O267        C276   1.274       .  A
O268        C278   1.272       .  A
O269        C277   1.271       .  A
O270        C279   1.275       .  A
O271        C280   1.273       .  A
O272        C279   1.272       .  A
O273        C280   1.276       .  A
O274        C281   1.275       .  A
O275        C281   1.270       .  A
C276        C376   1.483       .  S
C277        C369   1.487       .  S
C278        C319   1.483       .  S
C279        C389   1.473       .  S
C280        C306   1.482       .  S
C281        C396   1.465       .  S
Zn282       O286   1.954       .  S
Zn282       O287   2.009       .  S
Zn282       O291   2.012       .  S
Zn282       O298   2.021       .  S
Zn283       O286   1.985       .  S
Zn283       O288   2.046       .  S
Zn283       O290   2.029       .  S
Zn283       O294   2.038       .  S
Zn284       O286   1.949       .  S
Zn284       O289   2.019       .  S
Zn284       O292   1.990       .  S
Zn284       O295   2.028       .  S
Zn285       O286   1.949       .  S
Zn285       O293   2.014       .  S
Zn285       O296   1.994       .  S
Zn285       O297   2.001       .  S
O287        C299   1.272       .  A
O288        C300   1.275       .  A
O289        C301   1.273       .  A
O290        C299   1.275       .  A
O291        C301   1.273       .  A
O292        C300   1.271       .  A
O293        C302   1.273       .  A
O294        C303   1.274       .  A
O295        C302   1.275       .  A
O296        C303   1.271       .  A
O297        C304   1.271       .  A
O298        C304   1.274       .  A
C299        C316   1.472       .  S
C300        C329   1.470       .  S
C301        C346   1.487       .  S
C302        C309   1.475       .  S
C303        C339   1.467       .  S
C304        C359   1.483       .  S
C305       C1154   1.409   1_455  A
C305        C310   1.398       .  A
C305        F312   1.358       .  S
C306       C1153   1.409       .  A
C306        C731   1.409   1_545  A
C307        C730   1.409       .  A
C307        C308   1.401       .  A
C307        F314   1.358       .  S
C308       C1157   1.405       .  A
C308        F313   1.358       .  S
C309       C1156   1.405   1_455  A
C309        C734   1.404       .  A
C310        C733   1.404   1_545  A
C310        F311   1.358       .  S
C315        C316   1.405       .  A
C315        C320   1.400       .  A
C315        F322   1.358       .  S
C316        C317   1.402       .  A
C317        C318   1.399       .  A
C317        F324   1.358       .  S
C318        C319   1.411       .  A
C318        F323   1.358       .  S
C319        C320   1.409       .  A
C320        F321   1.358       .  S
C325       C1174   1.402   1_455  A
C325        C330   1.399       .  A
C325        F332   1.358       .  S
C326       C1173   1.402       .  A
C326        C327   1.406       .  A
C327        C328   1.400       .  A
C327        F334   1.358       .  S
C328       C1177   1.403       .  A
C328        F333   1.358       .  S
C329       C1176   1.403   1_455  A
C329        C330   1.406       .  A
C330        F331   1.358       .  S
C335        C336   1.406       .  A
C335        C340   1.399       .  A
C335        F342   1.358       .  S
C336       C1185   1.402       .  A
C337       C1184   1.402   1_455  A
C337        C338   1.399       .  A
C337        F344   1.358       .  S
C338        C339   1.406       .  A
C338        F343   1.358       .  S
C339       C1188   1.402   1_455  A
C340       C1187   1.402       .  A
C340        F341   1.358       .  S
C345        C346   1.410       .  A
C345        C350   1.399       .  A
C345        F352   1.358       .  S
C346        C347   1.409       .  A
C347        C348   1.400       .  A
C347        F354   1.358       .  S
C348        C349   1.409       .  A
C348        F353   1.358       .  S
C349        C350   1.408       .  A
C350        F351   1.358       .  S
C355        C356   1.411       .  A
C355        C360   1.397       .  A
C355        F362   1.358       .  S
C356        C357   1.408       .  A
C357        C358   1.399       .  A
C357        F364   1.358       .  S
C358        C359   1.410       .  A
C358        F363   1.358       .  S
C359        C360   1.405       .  A
C360        F361   1.358       .  S
C365       C1214   1.405       .  A
C365        C370   1.396       .  A
C365        F372   1.358       .  S
C366       C1213   1.405   1_455  A
C366        C367   1.408       .  A
C367        C368   1.399       .  A
C367        F374   1.358       .  S
C368       C1217   1.410   1_455  A
C368        F373   1.358       .  S
C369       C1216   1.410       .  A
C369        C370   1.412       .  A
C370        F371   1.358       .  S
C375        C376   1.408       .  A
C375        C380   1.400       .  A
C375        F382   1.358       .  S
C376       C1225   1.406       .  A
C377       C1224   1.406   1_455  A
C377        C378   1.399       .  A
C377        F384   1.358       .  S
C378        C379   1.412       .  A
C378        F383   1.358       .  S
C379       C1228   1.410   1_455  A
C380       C1227   1.410       .  A
C380        F381   1.358       .  S
C385        C386   1.407       .  A
C385        C390   1.402       .  A
C385        F392   1.358       .  S
C386        C387   1.401       .  A
C387        C388   1.397       .  A
C387        F394   1.358       .  S
C388        C389   1.407       .  A
C388        F393   1.358       .  S
C389        C390   1.404       .  A
C390        F391   1.358       .  S
C395        C396   1.401       .  A
C395        C400   1.394       .  A
C395        F402   1.358       .  S
C396        C397   1.405       .  A
C397        C398   1.403       .  A
C397        F404   1.357       .  S
C398        C399   1.406       .  A
C398        F403   1.357       .  S
C399        C400   1.408       .  A
C400        F401   1.359       .  S
C405        C830   1.406   1_556  A
C405        C410   1.402       .  A
C405        F412   1.358       .  S
C406        C829   1.406   1_544  A
C406       C1043   1.406   1_455  A
C407       C1042   1.406       .  A
C407        C408   1.398   1_545  A
C407        F414   1.358       .  S
C408        C621   1.405       .  A
C408        F413   1.358       .  S
C409        C620   1.405   1_556  A
C409       C1258   1.407       .  A
C410       C1257   1.407   1_455  A
C410        F411   1.358       .  S
C415        C420   1.399       .  A
C415        F422   1.358       .  S
C416        C417   1.408   1_554  A
C417        C418   1.403       .  A
C417        F424   1.358       .  S
C418        C419   1.407       .  A
C418        F423   1.358       .  S
C420        F421   1.358       .  S
Zn425       O429   1.949   1_556  S
Zn425       O430   2.014   1_556  S
Zn425       O434   2.005   1_556  S
Zn425       O653   2.008       .  S
Zn426       O429   1.948       .  S
Zn426       O431   1.988       .  S
Zn426       O433   2.013       .  S
Zn426       O437   2.026       .  S
Zn427       O641   1.990       .  S
Zn427       O432   2.033       .  S
Zn427       O647   2.044       .  S
Zn427       O438   2.048       .  S
Zn428       O641   1.948       .  S
Zn428       O436   1.986       .  S
Zn428       O439   2.025       .  S
Zn428       O440   2.014       .  S
O429       Zn639   1.990       .  S
O429       Zn640   1.948   1_554  S
O430        C442   1.272       .  A
O431        C443   1.272       .  A
O432        C444   1.275       .  A
O433        C442   1.272       .  A
O434        C656   1.272       .  A
O435       Zn639   2.044       .  S
O435        C443   1.276       .  A
O436        C445   1.270       .  A
O437        C446   1.274       .  A
O438        C445   1.275       .  A
O439        C658   1.274       .  A
O440        C447   1.273       .  A
O441       Zn637   2.008       .  S
O441        C447   1.274       .  A
C442        C591   1.489       .  S
C443        C611   1.476       .  S
C444        O646   1.272       .  A
C444        C618   1.476       .  S
C445        C598   1.467       .  S
C446        O651   1.274   1_554  A
C446        C840   1.479       .  S
C447        C578   1.480       .  S
Zn448       O664   1.947   1_554  S
Zn448       O453   1.999       .  S
Zn448       O457   2.009       .  S
Zn448       O464   1.983       .  S
Zn449       O452   1.951       .  S
Zn449       O454   2.012       .  S
Zn449       O668   2.018       .  S
Zn449       O460   2.007       .  S
Zn450       O452   1.953       .  S
Zn450       O455   2.030       .  S
Zn450       O458   2.024       .  S
Zn450       O461   1.996       .  S
Zn451       O452   1.989       .  S
Zn451       O459   2.043       .  S
Zn451       O462   2.041       .  S
Zn451       O675   2.046       .  S
O452       Zn660   1.947       .  S
O453        C465   1.270       .  A
O454        C466   1.274       .  A
O455        C467   1.274       .  A
O456       Zn661   2.018   1_554  S
O456        C465   1.273       .  A
O457        C679   1.272   1_554  A
O458        C466   1.274       .  A
O459        C468   1.275       .  A
O460        C469   1.273       .  A
O461        C468   1.271       .  A
O462        C469   1.276       .  A
O463       Zn663   2.046   1_554  S
O463        C470   1.276       .  A
O464        C470   1.270       .  A
C465        C568   1.485       .  S
C466        C561   1.486       .  S
C467        O669   1.272       .  A
C467        C621   1.477       .  S
C468        C538   1.468       .  S
C469        C631   1.482       .  S
C470        C548   1.467       .  S
Zn471       O475   1.945       .  S
Zn471       O476   2.014       .  S
Zn471       O480   2.008       .  S
Zn471       O487   1.980       .  S
Zn472       O475   1.954       .  S
Zn472       O477   2.020       .  S
Zn472       O479   2.020       .  S
Zn472       O483   2.007       .  S
Zn473       O475   1.948       .  S
Zn473       O478   2.026       .  S
Zn473       O481   2.000       .  S
Zn473       O484   1.993       .  S
Zn474       O475   1.990       .  S
Zn474       O482   2.044       .  S
Zn474       O485   2.034       .  S
Zn474       O486   2.046       .  S
O476        C488   1.272       .  A
O477        C489   1.274       .  A
O478        C490   1.274       .  A
O479        C488   1.274       .  A
O480        C490   1.272       .  A
O481        C489   1.271       .  A
O482        C491   1.275       .  A
O483        C492   1.273       .  A
O484        C491   1.272       .  A
O485        C492   1.276       .  A
O486        C493   1.275       .  A
O487        C493   1.270       .  A
C488        C588   1.483       .  S
C489        C581   1.487       .  S
C490        C531   1.483       .  S
C491        C601   1.473       .  S
C492        C518   1.482       .  S
C493        C608   1.465       .  S
Zn494       O498   1.954       .  S
Zn494       O499   2.009       .  S
Zn494       O503   2.012       .  S
Zn494       O510   2.021       .  S
Zn495       O498   1.985       .  S
Zn495       O500   2.046       .  S
Zn495       O502   2.029       .  S
Zn495       O506   2.038       .  S
Zn496       O498   1.949       .  S
Zn496       O501   2.019       .  S
Zn496       O504   1.990       .  S
Zn496       O507   2.027       .  S
Zn497       O498   1.949       .  S
Zn497       O505   2.014       .  S
Zn497       O508   1.994       .  S
Zn497       O509   2.001       .  S
O499        C511   1.272       .  A
O500        C512   1.275       .  A
O501        C513   1.273       .  A
O502        C511   1.275       .  A
O503        C513   1.273       .  A
O504        C512   1.271       .  A
O505        C514   1.273       .  A
O506        C515   1.274       .  A
O507        C514   1.275       .  A
O508        C515   1.271       .  A
O509        C516   1.271       .  A
O510        C516   1.274       .  A
C511        C528   1.472       .  S
C512        C541   1.470       .  S
C513        C558   1.487       .  S
C514        C521   1.475       .  S
C515        C551   1.467       .  S
C516        C571   1.483       .  S
C517       C1366   1.409   1_455  A
C517        C522   1.398       .  A
C517        F524   1.358       .  S
C518       C1365   1.409       .  A
C519        C520   1.401       .  A
C519        F526   1.358       .  S
C520       C1369   1.405       .  A
C520        F525   1.358       .  S
C521       C1368   1.405   1_455  A
C522        F523   1.358       .  S
C527        C528   1.405       .  A
C527        C532   1.400       .  A
C527        F534   1.358       .  S
C528        C529   1.402       .  A
C529        C530   1.399       .  A
C529        F536   1.358       .  S
C530        C531   1.411       .  A
C530        F535   1.358       .  S
C531        C532   1.409       .  A
C532        F533   1.358       .  S
C537       C1386   1.402   1_455  A
C537        C542   1.399       .  A
C537        F544   1.358       .  S
C538       C1385   1.402       .  A
C538        C539   1.406       .  A
C539        C540   1.400       .  A
C539        F546   1.358       .  S
C540       C1389   1.403       .  A
C540        F545   1.358       .  S
C541       C1388   1.403   1_455  A
C541        C542   1.406       .  A
C542        F543   1.358       .  S
C547        C548   1.406       .  A
C547        C552   1.399       .  A
C547        F554   1.358       .  S
C548       C1397   1.402       .  A
C549       C1396   1.402   1_455  A
C549        C550   1.399       .  A
C549        F556   1.358       .  S
C550        C551   1.406       .  A
C550        F555   1.358       .  S
C551       C1400   1.402   1_455  A
C552       C1399   1.402       .  A
C552        F553   1.358       .  S
C557        C558   1.410       .  A
C557        C562   1.399       .  A
C557        F564   1.358       .  S
C558        C559   1.409       .  A
C559        C560   1.400       .  A
C559        F566   1.358       .  S
C560        C561   1.409       .  A
C560        F565   1.358       .  S
C561        C562   1.408       .  A
C562        F563   1.358       .  S
C567        C568   1.411       .  A
C567        C572   1.397       .  A
C567        F574   1.358       .  S
C568        C569   1.408       .  A
C569        C570   1.399       .  A
C569        F576   1.358       .  S
C570        C571   1.410       .  A
C570        F575   1.358       .  S
C571        C572   1.406       .  A
C572        F573   1.358       .  S
C577       C1426   1.405       .  A
C577        C582   1.396       .  A
C577        F584   1.358       .  S
C578       C1425   1.405   1_455  A
C578        C579   1.408       .  A
C579        C580   1.399       .  A
C579        F586   1.358       .  S
C580       C1429   1.410   1_455  A
C580        F585   1.358       .  S
C581       C1428   1.410       .  A
C581        C582   1.412       .  A
C582        F583   1.358       .  S
C587        C588   1.408       .  A
C587        C592   1.400       .  A
C587        F594   1.358       .  S
C588       C1437   1.406       .  A
C589       C1436   1.406   1_455  A
C589        C590   1.399       .  A
C589        F596   1.358       .  S
C590        C591   1.412       .  A
C590        F595   1.358       .  S
C591       C1440   1.410   1_455  A
C592       C1439   1.410       .  A
C592        F593   1.358       .  S
C597        C598   1.407       .  A
C597        C602   1.402       .  A
C597        F604   1.358       .  S
C598        C599   1.401       .  A
C599        C600   1.397       .  A
C599        F606   1.358       .  S
C600        C601   1.407       .  A
C600        F605   1.358       .  S
C601        C602   1.404       .  A
C602        F603   1.358       .  S
C607        C608   1.401       .  A
C607        C612   1.394       .  A
C607        F614   1.358       .  S
C608        C609   1.405       .  A
C609        C610   1.403       .  A
C609        F616   1.357       .  S
C610        C611   1.406       .  A
C610        F615   1.357       .  S
C611        C612   1.408       .  A
C612        F613   1.359       .  S
C617        C622   1.402       .  A
C617        F624   1.358       .  S
C618       C1679   1.406   1_455  A
C619       C1678   1.406       .  A
C619        C620   1.398       .  A
C619        F626   1.358       .  S
C620        F625   1.358       .  S
C621       C1470   1.407       .  A
C622       C1469   1.407   1_455  A
C622        F623   1.358       .  S
C627        C840   1.404       .  A
C627        C632   1.399       .  A
C627        F634   1.358       .  S
C628        C658   1.479       .  S
C628        C839   1.405       .  A
C628        C629   1.408       .  A
C629        C630   1.403       .  A
C629        F636   1.358       .  S
C630        C631   1.407       .  A
C630        F635   1.358       .  S
C631        C844   1.409       .  A
C632        C843   1.409   1_554  A
C632        F633   1.358       .  S
Zn637       O641   1.949       .  S
Zn637       O642   2.014       .  S
Zn637       O646   2.005       .  S
Zn638       O641   1.948       .  S
Zn638       O643   1.988       .  S
Zn638       O645   2.013       .  S
Zn638       O649   2.026       .  S
Zn639       O644   2.033       .  S
Zn639       O650   2.048   1_554  S
Zn640       O648   1.986       .  S
Zn640       O651   2.025       .  S
Zn640       O652   2.014       .  S
O642        C654   1.272       .  A
O643        C655   1.272       .  A
O644        C656   1.275       .  A
O645        C654   1.272       .  A
O647        C655   1.276       .  A
O648        C657   1.270       .  A
O649        C658   1.274       .  A
O650        C657   1.275       .  A
O652        C659   1.273       .  A
O653        C659   1.274       .  A
C654        C803   1.489       .  S
C655        C823   1.476       .  S
C656        C830   1.476       .  S
C657        C810   1.467       .  S
C659        C790   1.480       .  S
Zn660       O665   1.999       .  S
Zn660       O669   2.009       .  S
Zn660       O676   1.983       .  S
Zn661       O664   1.951       .  S
Zn661       O666   2.012       .  S
Zn661       O672   2.007       .  S
Zn662       O664   1.953       .  S
Zn662       O667   2.029       .  S
Zn662       O670   2.024       .  S
Zn662       O673   1.996       .  S
Zn663       O664   1.989       .  S
Zn663       O671   2.043       .  S
Zn663       O674   2.041       .  S
O665        C677   1.270       .  A
O666        C678   1.274       .  A
O667        C679   1.274       .  A
O668        C677   1.273       .  A
O670        C678   1.274       .  A
O671        C680   1.275       .  A
O672        C681   1.273       .  A
O673        C680   1.271       .  A
O674        C681   1.276       .  A
O675        C682   1.276       .  A
O676        C682   1.270       .  A
C677        C780   1.485       .  S
C678        C773   1.486       .  S
C679        C833   1.477       .  S
C680        C750   1.468       .  S
C681        C843   1.482       .  S
C682        C760   1.467       .  S
Zn683       O687   1.945       .  S
Zn683       O688   2.014       .  S
Zn683       O692   2.008       .  S
Zn683       O699   1.980       .  S
Zn684       O687   1.954       .  S
Zn684       O689   2.020       .  S
Zn684       O691   2.020       .  S
Zn684       O695   2.007       .  S
Zn685       O687   1.948       .  S
Zn685       O690   2.026       .  S
Zn685       O693   2.000       .  S
Zn685       O696   1.993       .  S
Zn686       O687   1.990       .  S
Zn686       O694   2.044       .  S
Zn686       O697   2.034       .  S
Zn686       O698   2.046       .  S
O688        C700   1.272       .  A
O689        C701   1.274       .  A
O690        C702   1.274       .  A
O691        C700   1.274       .  A
O692        C702   1.272       .  A
O693        C701   1.271       .  A
O694        C703   1.275       .  A
O695        C704   1.273       .  A
O696        C703   1.272       .  A
O697        C704   1.276       .  A
O698        C705   1.275       .  A
O699        C705   1.270       .  A
C700        C800   1.483       .  S
C701        C793   1.487       .  S
C702        C743   1.483       .  S
C703        C813   1.473       .  S
C704        C730   1.482       .  S
C705        C820   1.465       .  S
Zn706       O710   1.954       .  S
Zn706       O711   2.009       .  S
Zn706       O715   2.012       .  S
Zn706       O722   2.021       .  S
Zn707       O710   1.985       .  S
Zn707       O712   2.046       .  S
Zn707       O714   2.029       .  S
Zn707       O718   2.038       .  S
Zn708       O710   1.950       .  S
Zn708       O713   2.019       .  S
Zn708       O716   1.990       .  S
Zn708       O719   2.028       .  S
Zn709       O710   1.949       .  S
Zn709       O717   2.014       .  S
Zn709       O720   1.994       .  S
Zn709       O721   2.001       .  S
O711        C723   1.272       .  A
O712        C724   1.275       .  A
O713        C725   1.273       .  A
O714        C723   1.275       .  A
O715        C725   1.273       .  A
O716        C724   1.271       .  A
O717        C726   1.273       .  A
O718        C727   1.274       .  A
O719        C726   1.275       .  A
O720        C727   1.271       .  A
O721        C728   1.271       .  A
O722        C728   1.274       .  A
C723        C740   1.472       .  S
C724        C753   1.470       .  S
C725        C770   1.487       .  S
C726        C733   1.475       .  S
C727        C763   1.467       .  S
C728        C783   1.483       .  S
C729       C1578   1.409   1_455  A
C729        C734   1.398       .  A
C729        F736   1.358       .  S
C730       C1577   1.409       .  A
C731        C732   1.401       .  A
C731        F738   1.358       .  S
C732       C1581   1.405       .  A
C732        F737   1.358       .  S
C733       C1580   1.405   1_455  A
C734        F735   1.358       .  S
C739        C740   1.405       .  A
C739        C744   1.400       .  A
C739        F746   1.358       .  S
C740        C741   1.402       .  A
C741        C742   1.399       .  A
C741        F748   1.358       .  S
C742        C743   1.411       .  A
C742        F747   1.358       .  S
C743        C744   1.409       .  A
C744        F745   1.358       .  S
C749       C1598   1.402   1_455  A
C749        C754   1.399       .  A
C749        F756   1.358       .  S
C750       C1597   1.402       .  A
C750        C751   1.406       .  A
C751        C752   1.400       .  A
C751        F758   1.358       .  S
C752       C1601   1.403       .  A
C752        F757   1.358       .  S
C753       C1600   1.403   1_455  A
C753        C754   1.406       .  A
C754        F755   1.358       .  S
C759        C760   1.406       .  A
C759        C764   1.399       .  A
C759        F766   1.358       .  S
C760       C1609   1.402       .  A
C761       C1608   1.402   1_455  A
C761        C762   1.399       .  A
C761        F768   1.358       .  S
C762        C763   1.406       .  A
C762        F767   1.358       .  S
C763       C1612   1.402   1_455  A
C764       C1611   1.402       .  A
C764        F765   1.358       .  S
C769        C770   1.410       .  A
C769        C774   1.399       .  A
C769        F776   1.358       .  S
C770        C771   1.409       .  A
C771        C772   1.400       .  A
C771        F778   1.358       .  S
C772        C773   1.409       .  A
C772        F777   1.358       .  S
C773        C774   1.408       .  A
C774        F775   1.358       .  S
C779        C780   1.411       .  A
C779        C784   1.397       .  A
C779        F786   1.358       .  S
C780        C781   1.408       .  A
C781        C782   1.399       .  A
C781        F788   1.358       .  S
C782        C783   1.410       .  A
C782        F787   1.358       .  S
C783        C784   1.405       .  A
C784        F785   1.358       .  S
C789       C1638   1.405       .  A
C789        C794   1.396       .  A
C789        F796   1.358       .  S
C790       C1637   1.405   1_455  A
C790        C791   1.408       .  A
C791        C792   1.399       .  A
C791        F798   1.358       .  S
C792       C1641   1.410   1_455  A
C792        F797   1.358       .  S
C793       C1640   1.410       .  A
C793        C794   1.412       .  A
C794        F795   1.358       .  S
C799        C800   1.408       .  A
C799        C804   1.400       .  A
C799        F806   1.358       .  S
C800       C1649   1.406       .  A
C801       C1648   1.406   1_455  A
C801        C802   1.399       .  A
C801        F808   1.358       .  S
C802        C803   1.412       .  A
C802        F807   1.358       .  S
C803       C1652   1.410   1_455  A
C804       C1651   1.410       .  A
C804        F805   1.358       .  S
C809        C810   1.407       .  A
C809        C814   1.402       .  A
C809        F816   1.358       .  S
C810        C811   1.401       .  A
C811        C812   1.397       .  A
C811        F818   1.358       .  S
C812        C813   1.407       .  A
C812        F817   1.358       .  S
C813        C814   1.404       .  A
C814        F815   1.358       .  S
C819        C820   1.401       .  A
C819        C824   1.394       .  A
C819        F826   1.358       .  S
C820        C821   1.405       .  A
C821        C822   1.403       .  A
C821        F828   1.357       .  S
C822        C823   1.406       .  A
C822        F827   1.357       .  S
C823        C824   1.408       .  A
C824        F825   1.359       .  S
C829        C834   1.402       .  A
C829        F836   1.358       .  S
C830       C1467   1.406   1_455  A
C831       C1466   1.406       .  A
C831        C832   1.398       .  A
C831        F838   1.358       .  S
C832        F837   1.358       .  S
C833       C1682   1.407       .  A
C834       C1681   1.407   1_455  A
C834        F835   1.358       .  S
C839        C844   1.399       .  A
C839        F846   1.358       .  S
C840        C841   1.408   1_554  A
C841        C842   1.403       .  A
C841        F848   1.358       .  S
C842        C843   1.407       .  A
C842        F847   1.358       .  S
C844        F845   1.358       .  S
Zn849       O853   1.949   1_556  S
Zn849       O854   2.014   1_556  S
Zn849       O858   2.005   1_556  S
Zn849      O1077   2.008       .  S
Zn850       O853   1.948       .  S
Zn850       O855   1.988       .  S
Zn850       O857   2.013       .  S
Zn850       O861   2.026       .  S
Zn851      O1065   1.990       .  S
Zn851       O856   2.033       .  S
Zn851      O1071   2.044       .  S
Zn851       O862   2.048       .  S
Zn852      O1065   1.948       .  S
Zn852       O860   1.986       .  S
Zn852       O863   2.025       .  S
Zn852       O864   2.014       .  S
O853      Zn1063   1.990       .  S
O853      Zn1064   1.948   1_554  S
O854        C866   1.272       .  A
O855        C867   1.272       .  A
O856        C868   1.275       .  A
O857        C866   1.272       .  A
O858       C1080   1.272       .  A
O859      Zn1063   2.044       .  S
O859        C867   1.276       .  A
O860        C869   1.270       .  A
O861        C870   1.274       .  A
O862        C869   1.275       .  A
O863       C1082   1.274       .  A
O864        C871   1.273       .  A
O865      Zn1061   2.008       .  S
O865        C871   1.274       .  A
C866       C1015   1.489       .  S
C867       C1035   1.476       .  S
C868       O1070   1.272       .  A
C868       C1042   1.476       .  S
C869       C1022   1.467       .  S
C870       O1075   1.274   1_554  A
C870       C1264   1.479       .  S
C871       C1002   1.480       .  S
Zn872      O1088   1.947   1_554  S
Zn872       O877   1.999       .  S
Zn872       O881   2.009       .  S
Zn872       O888   1.983       .  S
Zn873       O876   1.951       .  S
Zn873       O878   2.012       .  S
Zn873      O1092   2.018       .  S
Zn873       O884   2.007       .  S
Zn874       O876   1.953       .  S
Zn874       O879   2.029       .  S
Zn874       O882   2.024       .  S
Zn874       O885   1.996       .  S
Zn875       O876   1.989       .  S
Zn875       O883   2.043       .  S
Zn875       O886   2.041       .  S
Zn875      O1099   2.046       .  S
O876      Zn1084   1.947       .  S
O877        C889   1.270       .  A
O878        C890   1.274       .  A
O879        C891   1.274       .  A
O880      Zn1085   2.018   1_554  S
O880        C889   1.273       .  A
O881       C1103   1.272   1_554  A
O882        C890   1.274       .  A
O883        C892   1.275       .  A
O884        C893   1.273       .  A
O885        C892   1.271       .  A
O886        C893   1.276       .  A
O887      Zn1087   2.046   1_554  S
O887        C894   1.276       .  A
O888        C894   1.270       .  A
C889        C992   1.485       .  S
C890        C985   1.486       .  S
C891       O1093   1.272       .  A
C891       C1045   1.477       .  S
C892        C962   1.468       .  S
C893       C1055   1.481       .  S
C894        C972   1.467       .  S
Zn895       O899   1.945       .  S
Zn895       O900   2.014       .  S
Zn895       O904   2.008       .  S
Zn895       O911   1.980       .  S
Zn896       O899   1.954       .  S
Zn896       O901   2.020       .  S
Zn896       O903   2.020       .  S
Zn896       O907   2.007       .  S
Zn897       O899   1.948       .  S
Zn897       O902   2.026       .  S
Zn897       O905   2.000       .  S
Zn897       O908   1.993       .  S
Zn898       O899   1.990       .  S
Zn898       O906   2.044       .  S
Zn898       O909   2.034       .  S
Zn898       O910   2.046       .  S
O900        C912   1.272       .  A
O901        C913   1.274       .  A
O902        C914   1.274       .  A
O903        C912   1.274       .  A
O904        C914   1.272       .  A
O905        C913   1.271       .  A
O906        C915   1.275       .  A
O907        C916   1.273       .  A
O908        C915   1.272       .  A
O909        C916   1.276       .  A
O910        C917   1.275       .  A
O911        C917   1.270       .  A
C912       C1012   1.483       .  S
C913       C1005   1.487       .  S
C914        C955   1.483       .  S
C915       C1025   1.473       .  S
C916        C942   1.482       .  S
C917       C1032   1.465       .  S
Zn918       O922   1.954       .  S
Zn918       O923   2.009       .  S
Zn918       O927   2.012       .  S
Zn918       O934   2.021       .  S
Zn919       O922   1.985       .  S
Zn919       O924   2.046       .  S
Zn919       O926   2.029       .  S
Zn919       O930   2.038       .  S
Zn920       O922   1.949       .  S
Zn920       O925   2.019       .  S
Zn920       O928   1.990       .  S
Zn920       O931   2.027       .  S
Zn921       O922   1.949       .  S
Zn921       O929   2.014       .  S
Zn921       O932   1.994       .  S
Zn921       O933   2.001       .  S
O923        C935   1.272       .  A
O924        C936   1.275       .  A
O925        C937   1.273       .  A
O926        C935   1.275       .  A
O927        C937   1.273       .  A
O928        C936   1.271       .  A
O929        C938   1.273       .  A
O930        C939   1.274       .  A
O931        C938   1.275       .  A
O932        C939   1.271       .  A
O933        C940   1.271       .  A
O934        C940   1.274       .  A
C935        C952   1.472       .  S
C936        C965   1.470       .  S
C937        C982   1.487       .  S
C938        C945   1.475       .  S
C939        C975   1.467       .  S
C940        C995   1.483       .  S
C941        C946   1.398       .  A
C941        F948   1.358       .  S
C942       C1367   1.409   1_545  A
C943       C1366   1.409       .  A
C943        C944   1.401       .  A
C943        F950   1.358       .  S
C944        F949   1.358       .  S
C945       C1370   1.404       .  A
C946       C1369   1.404   1_545  A
C946        F947   1.358       .  S
C951        C952   1.405       .  A
C951        C956   1.400       .  A
C951        F958   1.358       .  S
C952        C953   1.402       .  A
C953        C954   1.399       .  A
C953        F960   1.358       .  S
C954        C955   1.411       .  A
C954        F959   1.358       .  S
C955        C956   1.409       .  A
C956        F957   1.358       .  S
C961        C966   1.399       .  A
C961        F968   1.358       .  S
C962        C963   1.406       .  A
C963        C964   1.400       .  A
C963        F970   1.358       .  S
C964        F969   1.358       .  S
C965        C966   1.406       .  A
C966        F967   1.358       .  S
C971        C972   1.406       .  A
C971        C976   1.399       .  A
C971        F978   1.358       .  S
C973        C974   1.399       .  A
C973        F980   1.358       .  S
C974        C975   1.406       .  A
C974        F979   1.358       .  S
C976        F977   1.358       .  S
C981        C982   1.410       .  A
C981        C986   1.399       .  A
C981        F988   1.358       .  S
C982        C983   1.409       .  A
C983        C984   1.400       .  A
C983        F990   1.358       .  S
C984        C985   1.409       .  A
C984        F989   1.358       .  S
C985        C986   1.408       .  A
C986        F987   1.358       .  S
C991        C992   1.411       .  A
C991        C996   1.397       .  A
C991        F998   1.358       .  S
C992        C993   1.408       .  A
C993        C994   1.399       .  A
C993       F1000   1.358       .  S
C994        C995   1.410       .  A
C994        F999   1.358       .  S
C995        C996   1.405       .  A
C996        F997   1.358       .  S
C1001      C1006   1.396       .  A
C1001      F1008   1.358       .  S
C1002      C1003   1.408       .  A
C1003      C1004   1.399       .  A
C1003      F1010   1.358       .  S
C1004      F1009   1.358       .  S
C1005      C1006   1.412       .  A
C1006      F1007   1.358       .  S
C1011      C1012   1.408       .  A
C1011      C1016   1.400       .  A
C1011      F1018   1.358       .  S
C1013      C1014   1.399       .  A
C1013      F1020   1.358       .  S
C1014      C1015   1.412       .  A
C1014      F1019   1.358       .  S
C1016      F1017   1.358       .  S
C1021      C1022   1.407       .  A
C1021      C1026   1.402       .  A
C1021      F1028   1.358       .  S
C1022      C1023   1.401       .  A
C1023      C1024   1.397       .  A
C1023      F1030   1.358       .  S
C1024      C1025   1.407       .  A
C1024      F1029   1.358       .  S
C1025      C1026   1.404       .  A
C1026      F1027   1.358       .  S
C1031      C1032   1.401       .  A
C1031      C1036   1.394       .  A
C1031      F1038   1.358       .  S
C1032      C1033   1.405       .  A
C1033      C1034   1.403       .  A
C1033      F1040   1.357       .  S
C1034      C1035   1.406       .  A
C1034      F1039   1.357       .  S
C1035      C1036   1.408       .  A
C1036      F1037   1.359       .  S
C1041      C1466   1.406       .  A
C1041      C1046   1.402       .  A
C1041      F1048   1.358       .  S
C1042      C1465   1.406   1_545  A
C1043      C1044   1.398   1_545  A
C1043      F1050   1.358       .  S
C1044      C1681   1.406   1_554  A
C1044      F1049   1.358       .  S
C1045      C1680   1.405       .  A
C1046      F1047   1.358       .  S
C1051      C1264   1.404       .  A
C1051      C1056   1.399       .  A
C1051      F1058   1.358       .  S
C1052      C1082   1.479       .  S
C1052      C1263   1.405       .  A
C1052      C1053   1.408       .  A
C1053      C1054   1.403       .  A
C1053      F1060   1.358       .  S
C1054      C1055   1.407       .  A
C1054      F1059   1.358       .  S
C1055      C1268   1.409       .  A
C1056      C1267   1.409   1_554  A
C1056      F1057   1.358       .  S
Zn1061     O1065   1.949       .  S
Zn1061     O1066   2.014       .  S
Zn1061     O1070   2.005       .  S
Zn1062     O1065   1.948       .  S
Zn1062     O1067   1.988       .  S
Zn1062     O1069   2.013       .  S
Zn1062     O1073   2.026       .  S
Zn1063     O1068   2.033       .  S
Zn1063     O1074   2.048   1_554  S
Zn1064     O1072   1.986       .  S
Zn1064     O1075   2.025       .  S
Zn1064     O1076   2.014       .  S
O1066      C1078   1.272       .  A
O1067      C1079   1.272       .  A
O1068      C1080   1.275       .  A
O1069      C1078   1.272       .  A
O1071      C1079   1.276       .  A
O1072      C1081   1.270       .  A
O1073      C1082   1.274       .  A
O1074      C1081   1.275       .  A
O1076      C1083   1.273       .  A
O1077      C1083   1.274       .  A
C1078      C1227   1.489       .  S
C1079      C1247   1.476       .  S
C1080      C1254   1.476       .  S
C1081      C1234   1.467       .  S
C1083      C1214   1.480       .  S
Zn1084     O1089   1.999       .  S
Zn1084     O1093   2.009       .  S
Zn1084     O1100   1.983       .  S
Zn1085     O1088   1.951       .  S
Zn1085     O1090   2.012       .  S
Zn1085     O1096   2.007       .  S
Zn1086     O1088   1.953       .  S
Zn1086     O1091   2.029       .  S
Zn1086     O1094   2.024       .  S
Zn1086     O1097   1.996       .  S
Zn1087     O1088   1.989       .  S
Zn1087     O1095   2.043       .  S
Zn1087     O1098   2.041       .  S
O1089      C1101   1.270       .  A
O1090      C1102   1.274       .  A
O1091      C1103   1.274       .  A
O1092      C1101   1.273       .  A
O1094      C1102   1.274       .  A
O1095      C1104   1.275       .  A
O1096      C1105   1.273       .  A
O1097      C1104   1.271       .  A
O1098      C1105   1.276       .  A
O1099      C1106   1.276       .  A
O1100      C1106   1.270       .  A
C1101      C1204   1.485       .  S
C1102      C1197   1.486       .  S
C1103      C1257   1.477       .  S
C1104      C1174   1.468       .  S
C1105      C1267   1.482       .  S
C1106      C1184   1.467       .  S
Zn1107     O1111   1.945       .  S
Zn1107     O1112   2.014       .  S
Zn1107     O1116   2.008       .  S
Zn1107     O1123   1.980       .  S
Zn1108     O1111   1.954       .  S
Zn1108     O1113   2.020       .  S
Zn1108     O1115   2.020       .  S
Zn1108     O1119   2.007       .  S
Zn1109     O1111   1.948       .  S
Zn1109     O1114   2.026       .  S
Zn1109     O1117   2.000       .  S
Zn1109     O1120   1.993       .  S
Zn1110     O1111   1.990       .  S
Zn1110     O1118   2.044       .  S
Zn1110     O1121   2.034       .  S
Zn1110     O1122   2.046       .  S
O1112      C1124   1.272       .  A
O1113      C1125   1.274       .  A
O1114      C1126   1.274       .  A
O1115      C1124   1.274       .  A
O1116      C1126   1.272       .  A
O1117      C1125   1.271       .  A
O1118      C1127   1.275       .  A
O1119      C1128   1.273       .  A
O1120      C1127   1.272       .  A
O1121      C1128   1.276       .  A
O1122      C1129   1.275       .  A
O1123      C1129   1.270       .  A
C1124      C1224   1.483       .  S
C1125      C1217   1.487       .  S
C1126      C1167   1.483       .  S
C1127      C1237   1.473       .  S
C1128      C1154   1.482       .  S
C1129      C1244   1.465       .  S
Zn1130     O1134   1.954       .  S
Zn1130     O1135   2.009       .  S
Zn1130     O1139   2.012       .  S
Zn1130     O1146   2.021       .  S
Zn1131     O1134   1.985       .  S
Zn1131     O1136   2.046       .  S
Zn1131     O1138   2.029       .  S
Zn1131     O1142   2.038       .  S
Zn1132     O1134   1.950       .  S
Zn1132     O1137   2.019       .  S
Zn1132     O1140   1.990       .  S
Zn1132     O1143   2.028       .  S
Zn1133     O1134   1.949       .  S
Zn1133     O1141   2.014       .  S
Zn1133     O1144   1.994       .  S
Zn1133     O1145   2.001       .  S
O1135      C1147   1.272       .  A
O1136      C1148   1.275       .  A
O1137      C1149   1.273       .  A
O1138      C1147   1.275       .  A
O1139      C1149   1.273       .  A
O1140      C1148   1.271       .  A
O1141      C1150   1.273       .  A
O1142      C1151   1.274       .  A
O1143      C1150   1.275       .  A
O1144      C1151   1.271       .  A
O1145      C1152   1.271       .  A
O1146      C1152   1.274       .  A
C1147      C1164   1.472       .  S
C1148      C1177   1.470       .  S
C1149      C1194   1.487       .  S
C1150      C1157   1.475       .  S
C1151      C1187   1.467       .  S
C1152      C1207   1.483       .  S
C1153      C1158   1.398       .  A
C1153      F1160   1.358       .  S
C1154      C1579   1.409   1_545  A
C1155      C1578   1.409       .  A
C1155      C1156   1.401       .  A
C1155      F1162   1.358       .  S
C1156      F1161   1.358       .  S
C1157      C1582   1.404       .  A
C1158      C1581   1.404   1_545  A
C1158      F1159   1.358       .  S
C1163      C1164   1.405       .  A
C1163      C1168   1.400       .  A
C1163      F1170   1.358       .  S
C1164      C1165   1.402       .  A
C1165      C1166   1.399       .  A
C1165      F1172   1.358       .  S
C1166      C1167   1.411       .  A
C1166      F1171   1.358       .  S
C1167      C1168   1.409       .  A
C1168      F1169   1.358       .  S
C1173      C1178   1.399       .  A
C1173      F1180   1.358       .  S
C1174      C1175   1.406       .  A
C1175      C1176   1.400       .  A
C1175      F1182   1.358       .  S
C1176      F1181   1.358       .  S
C1177      C1178   1.406       .  A
C1178      F1179   1.358       .  S
C1183      C1184   1.406       .  A
C1183      C1188   1.399       .  A
C1183      F1190   1.358       .  S
C1185      C1186   1.399       .  A
C1185      F1192   1.358       .  S
C1186      C1187   1.406       .  A
C1186      F1191   1.358       .  S
C1188      F1189   1.358       .  S
C1193      C1194   1.410       .  A
C1193      C1198   1.399       .  A
C1193      F1200   1.358       .  S
C1194      C1195   1.409       .  A
C1195      C1196   1.400       .  A
C1195      F1202   1.358       .  S
C1196      C1197   1.409       .  A
C1196      F1201   1.358       .  S
C1197      C1198   1.408       .  A
C1198      F1199   1.358       .  S
C1203      C1204   1.411       .  A
C1203      C1208   1.397       .  A
C1203      F1210   1.358       .  S
C1204      C1205   1.408       .  A
C1205      C1206   1.399       .  A
C1205      F1212   1.358       .  S
C1206      C1207   1.410       .  A
C1206      F1211   1.358       .  S
C1207      C1208   1.405       .  A
C1208      F1209   1.358       .  S
C1213      C1218   1.396       .  A
C1213      F1220   1.358       .  S
C1214      C1215   1.408       .  A
C1215      C1216   1.399       .  A
C1215      F1222   1.358       .  S
C1216      F1221   1.358       .  S
C1217      C1218   1.412       .  A
C1218      F1219   1.358       .  S
C1223      C1224   1.408       .  A
C1223      C1228   1.400       .  A
C1223      F1230   1.358       .  S
C1225      C1226   1.399       .  A
C1225      F1232   1.358       .  S
C1226      C1227   1.412       .  A
C1226      F1231   1.358       .  S
C1228      F1229   1.358       .  S
C1233      C1234   1.407       .  A
C1233      C1238   1.402       .  A
C1233      F1240   1.358       .  S
C1234      C1235   1.401       .  A
C1235      C1236   1.397       .  A
C1235      F1242   1.358       .  S
C1236      C1237   1.407       .  A
C1236      F1241   1.358       .  S
C1237      C1238   1.404       .  A
C1238      F1239   1.358       .  S
C1243      C1244   1.401       .  A
C1243      C1248   1.394       .  A
C1243      F1250   1.358       .  S
C1244      C1245   1.405       .  A
C1245      C1246   1.403       .  A
C1245      F1252   1.357       .  S
C1246      C1247   1.406       .  A
C1246      F1251   1.357       .  S
C1247      C1248   1.408       .  A
C1248      F1249   1.359       .  S
C1253      C1678   1.406   1_556  A
C1253      C1258   1.402       .  A
C1253      F1260   1.358       .  S
C1254      C1677   1.406   1_544  A
C1255      C1256   1.398   1_545  A
C1255      F1262   1.358       .  S
C1256      C1469   1.405       .  A
C1256      F1261   1.358       .  S
C1257      C1468   1.405   1_556  A
C1258      F1259   1.358       .  S
C1263      C1268   1.399       .  A
C1263      F1270   1.358       .  S
C1264      C1265   1.408   1_554  A
C1265      C1266   1.403       .  A
C1265      F1272   1.358       .  S
C1266      C1267   1.407       .  A
C1266      F1271   1.358       .  S
C1268      F1269   1.358       .  S
Zn1273     O1277   1.949   1_556  S
Zn1273     O1278   2.014   1_556  S
Zn1273     O1282   2.005   1_556  S
Zn1273     O1501   2.008       .  S
Zn1274     O1277   1.948       .  S
Zn1274     O1279   1.988       .  S
Zn1274     O1281   2.013       .  S
Zn1274     O1285   2.026       .  S
Zn1275     O1489   1.990       .  S
Zn1275     O1280   2.033       .  S
Zn1275     O1495   2.044       .  S
Zn1275     O1286   2.048       .  S
Zn1276     O1489   1.948       .  S
Zn1276     O1284   1.986       .  S
Zn1276     O1287   2.025       .  S
Zn1276     O1288   2.014       .  S
O1277     Zn1487   1.990       .  S
O1277     Zn1488   1.948   1_554  S
O1278      C1290   1.272       .  A
O1279      C1291   1.272       .  A
O1280      C1292   1.275       .  A
O1281      C1290   1.272       .  A
O1282      C1504   1.272       .  A
O1283     Zn1487   2.044       .  S
O1283      C1291   1.276       .  A
O1284      C1293   1.270       .  A
O1285      C1294   1.274       .  A
O1286      C1293   1.275       .  A
O1287      C1506   1.274       .  A
O1288      C1295   1.273       .  A
O1289     Zn1485   2.008       .  S
O1289      C1295   1.274       .  A
C1290      C1439   1.489       .  S
C1291      C1459   1.476       .  S
C1292      O1494   1.272       .  A
C1292      C1466   1.476       .  S
C1293      C1446   1.467       .  S
C1294      O1499   1.274   1_554  A
C1294      C1688   1.479       .  S
C1295      C1426   1.480       .  S
Zn1296     O1512   1.947   1_554  S
Zn1296     O1301   1.999       .  S
Zn1296     O1305   2.009       .  S
Zn1296     O1312   1.983       .  S
Zn1297     O1300   1.951       .  S
Zn1297     O1302   2.012       .  S
Zn1297     O1516   2.018       .  S
Zn1297     O1308   2.007       .  S
Zn1298     O1300   1.953       .  S
Zn1298     O1303   2.029       .  S
Zn1298     O1306   2.024       .  S
Zn1298     O1309   1.996       .  S
Zn1299     O1300   1.989       .  S
Zn1299     O1307   2.043       .  S
Zn1299     O1310   2.041       .  S
Zn1299     O1523   2.046       .  S
O1300     Zn1508   1.947       .  S
O1301      C1313   1.270       .  A
O1302      C1314   1.274       .  A
O1303      C1315   1.274       .  A
O1304     Zn1509   2.018   1_554  S
O1304      C1313   1.273       .  A
O1305      C1527   1.272   1_554  A
O1306      C1314   1.274       .  A
O1307      C1316   1.275       .  A
O1308      C1317   1.273       .  A
O1309      C1316   1.271       .  A
O1310      C1317   1.276       .  A
O1311     Zn1511   2.046   1_554  S
O1311      C1318   1.276       .  A
O1312      C1318   1.270       .  A
C1313      C1416   1.485       .  S
C1314      C1409   1.486       .  S
C1315      O1517   1.272       .  A
C1315      C1469   1.477       .  S
C1316      C1386   1.468       .  S
C1317      C1479   1.482       .  S
C1318      C1396   1.467       .  S
Zn1319     O1323   1.945       .  S
Zn1319     O1324   2.014       .  S
Zn1319     O1328   2.008       .  S
Zn1319     O1335   1.980       .  S
Zn1320     O1323   1.954       .  S
Zn1320     O1325   2.020       .  S
Zn1320     O1327   2.020       .  S
Zn1320     O1331   2.007       .  S
Zn1321     O1323   1.948       .  S
Zn1321     O1326   2.026       .  S
Zn1321     O1329   2.000       .  S
Zn1321     O1332   1.993       .  S
Zn1322     O1323   1.990       .  S
Zn1322     O1330   2.044       .  S
Zn1322     O1333   2.034       .  S
Zn1322     O1334   2.046       .  S
O1324      C1336   1.272       .  A
O1325      C1337   1.274       .  A
O1326      C1338   1.274       .  A
O1327      C1336   1.274       .  A
O1328      C1338   1.272       .  A
O1329      C1337   1.271       .  A
O1330      C1339   1.275       .  A
O1331      C1340   1.273       .  A
O1332      C1339   1.272       .  A
O1333      C1340   1.276       .  A
O1334      C1341   1.275       .  A
O1335      C1341   1.270       .  A
C1336      C1436   1.483       .  S
C1337      C1429   1.487       .  S
C1338      C1379   1.483       .  S
C1339      C1449   1.473       .  S
C1340      C1366   1.482       .  S
C1341      C1456   1.465       .  S
Zn1342     O1346   1.954       .  S
Zn1342     O1347   2.009       .  S
Zn1342     O1351   2.012       .  S
Zn1342     O1358   2.021       .  S
Zn1343     O1346   1.985       .  S
Zn1343     O1348   2.046       .  S
Zn1343     O1350   2.029       .  S
Zn1343     O1354   2.038       .  S
Zn1344     O1346   1.949       .  S
Zn1344     O1349   2.019       .  S
Zn1344     O1352   1.990       .  S
Zn1344     O1355   2.027       .  S
Zn1345     O1346   1.949       .  S
Zn1345     O1353   2.014       .  S
Zn1345     O1356   1.994       .  S
Zn1345     O1357   2.001       .  S
O1347      C1359   1.272       .  A
O1348      C1360   1.275       .  A
O1349      C1361   1.273       .  A
O1350      C1359   1.275       .  A
O1351      C1361   1.273       .  A
O1352      C1360   1.271       .  A
O1353      C1362   1.273       .  A
O1354      C1363   1.274       .  A
O1355      C1362   1.275       .  A
O1356      C1363   1.271       .  A
O1357      C1364   1.271       .  A
O1358      C1364   1.274       .  A
C1359      C1376   1.472       .  S
C1360      C1389   1.470       .  S
C1361      C1406   1.487       .  S
C1362      C1369   1.475       .  S
C1363      C1399   1.467       .  S
C1364      C1419   1.483       .  S
C1365      C1370   1.398       .  A
C1365      F1372   1.358       .  S
C1367      C1368   1.401       .  A
C1367      F1374   1.358       .  S
C1368      F1373   1.358       .  S
C1370      F1371   1.358       .  S
C1375      C1376   1.405       .  A
C1375      C1380   1.400       .  A
C1375      F1382   1.358       .  S
C1376      C1377   1.402       .  A
C1377      C1378   1.399       .  A
C1377      F1384   1.358       .  S
C1378      C1379   1.411       .  A
C1378      F1383   1.358       .  S
C1379      C1380   1.409       .  A
C1380      F1381   1.358       .  S
C1385      C1390   1.399       .  A
C1385      F1392   1.358       .  S
C1386      C1387   1.406       .  A
C1387      C1388   1.400       .  A
C1387      F1394   1.358       .  S
C1388      F1393   1.358       .  S
C1389      C1390   1.406       .  A
C1390      F1391   1.358       .  S
C1395      C1396   1.406       .  A
C1395      C1400   1.399       .  A
C1395      F1402   1.358       .  S
C1397      C1398   1.399       .  A
C1397      F1404   1.358       .  S
C1398      C1399   1.406       .  A
C1398      F1403   1.358       .  S
C1400      F1401   1.358       .  S
C1405      C1406   1.410       .  A
C1405      C1410   1.399       .  A
C1405      F1412   1.358       .  S
C1406      C1407   1.409       .  A
C1407      C1408   1.400       .  A
C1407      F1414   1.358       .  S
C1408      C1409   1.409       .  A
C1408      F1413   1.358       .  S
C1409      C1410   1.408       .  A
C1410      F1411   1.358       .  S
C1415      C1416   1.411       .  A
C1415      C1420   1.397       .  A
C1415      F1422   1.358       .  S
C1416      C1417   1.408       .  A
C1417      C1418   1.399       .  A
C1417      F1424   1.358       .  S
C1418      C1419   1.410       .  A
C1418      F1423   1.358       .  S
C1419      C1420   1.405       .  A
C1420      F1421   1.358       .  S
C1425      C1430   1.396       .  A
C1425      F1432   1.358       .  S
C1426      C1427   1.408       .  A
C1427      C1428   1.399       .  A
C1427      F1434   1.358       .  S
C1428      F1433   1.358       .  S
C1429      C1430   1.412       .  A
C1430      F1431   1.358       .  S
C1435      C1436   1.408       .  A
C1435      C1440   1.400       .  A
C1435      F1442   1.358       .  S
C1437      C1438   1.399       .  A
C1437      F1444   1.358       .  S
C1438      C1439   1.412       .  A
C1438      F1443   1.358       .  S
C1440      F1441   1.358       .  S
C1445      C1446   1.407       .  A
C1445      C1450   1.402       .  A
C1445      F1452   1.358       .  S
C1446      C1447   1.401       .  A
C1447      C1448   1.397       .  A
C1447      F1454   1.358       .  S
C1448      C1449   1.407       .  A
C1448      F1453   1.358       .  S
C1449      C1450   1.404       .  A
C1450      F1451   1.358       .  S
C1455      C1456   1.401       .  A
C1455      C1460   1.394       .  A
C1455      F1462   1.358       .  S
C1456      C1457   1.405       .  A
C1457      C1458   1.403       .  A
C1457      F1464   1.357       .  S
C1458      C1459   1.406       .  A
C1458      F1463   1.357       .  S
C1459      C1460   1.408       .  A
C1460      F1461   1.359       .  S
C1465      C1470   1.402       .  A
C1465      F1472   1.358       .  S
C1467      C1468   1.398       .  A
C1467      F1474   1.358       .  S
C1468      F1473   1.358       .  S
C1470      F1471   1.358       .  S
C1475      C1688   1.404       .  A
C1475      C1480   1.399       .  A
C1475      F1482   1.358       .  S
C1476      C1506   1.479       .  S
C1476      C1687   1.405       .  A
C1476      C1477   1.408       .  A
C1477      C1478   1.403       .  A
C1477      F1484   1.358       .  S
C1478      C1479   1.407       .  A
C1478      F1483   1.358       .  S
C1479      C1692   1.409       .  A
C1480      C1691   1.409   1_554  A
C1480      F1481   1.358       .  S
Zn1485     O1489   1.949       .  S
Zn1485     O1490   2.014       .  S
Zn1485     O1494   2.005       .  S
Zn1486     O1489   1.948       .  S
Zn1486     O1491   1.988       .  S
Zn1486     O1493   2.013       .  S
Zn1486     O1497   2.026       .  S
Zn1487     O1492   2.033       .  S
Zn1487     O1498   2.048   1_554  S
Zn1488     O1496   1.986       .  S
Zn1488     O1499   2.025       .  S
Zn1488     O1500   2.014       .  S
O1490      C1502   1.272       .  A
O1491      C1503   1.272       .  A
O1492      C1504   1.275       .  A
O1493      C1502   1.272       .  A
O1495      C1503   1.276       .  A
O1496      C1505   1.270       .  A
O1497      C1506   1.274       .  A
O1498      C1505   1.275       .  A
O1500      C1507   1.273       .  A
O1501      C1507   1.274       .  A
C1502      C1651   1.489       .  S
C1503      C1671   1.476       .  S
C1504      C1678   1.476       .  S
C1505      C1658   1.467       .  S
C1507      C1638   1.480       .  S
Zn1508     O1513   1.999       .  S
Zn1508     O1517   2.009       .  S
Zn1508     O1524   1.983       .  S
Zn1509     O1512   1.951       .  S
Zn1509     O1514   2.012       .  S
Zn1509     O1520   2.007       .  S
Zn1510     O1512   1.953       .  S
Zn1510     O1515   2.029       .  S
Zn1510     O1518   2.024       .  S
Zn1510     O1521   1.996       .  S
Zn1511     O1512   1.989       .  S
Zn1511     O1519   2.043       .  S
Zn1511     O1522   2.041       .  S
O1513      C1525   1.270       .  A
O1514      C1526   1.274       .  A
O1515      C1527   1.274       .  A
O1516      C1525   1.273       .  A
O1518      C1526   1.274       .  A
O1519      C1528   1.275       .  A
O1520      C1529   1.273       .  A
O1521      C1528   1.271       .  A
O1522      C1529   1.276       .  A
O1523      C1530   1.276       .  A
O1524      C1530   1.270       .  A
C1525      C1628   1.485       .  S
C1526      C1621   1.486       .  S
C1527      C1681   1.477       .  S
C1528      C1598   1.468       .  S
C1529      C1691   1.482       .  S
C1530      C1608   1.467       .  S
Zn1531     O1535   1.945       .  S
Zn1531     O1536   2.014       .  S
Zn1531     O1540   2.008       .  S
Zn1531     O1547   1.980       .  S
Zn1532     O1535   1.954       .  S
Zn1532     O1537   2.020       .  S
Zn1532     O1539   2.020       .  S
Zn1532     O1543   2.007       .  S
Zn1533     O1535   1.948       .  S
Zn1533     O1538   2.026       .  S
Zn1533     O1541   2.000       .  S
Zn1533     O1544   1.993       .  S
Zn1534     O1535   1.990       .  S
Zn1534     O1542   2.044       .  S
Zn1534     O1545   2.034       .  S
Zn1534     O1546   2.046       .  S
O1536      C1548   1.272       .  A
O1537      C1549   1.274       .  A
O1538      C1550   1.274       .  A
O1539      C1548   1.274       .  A
O1540      C1550   1.272       .  A
O1541      C1549   1.271       .  A
O1542      C1551   1.275       .  A
O1543      C1552   1.273       .  A
O1544      C1551   1.272       .  A
O1545      C1552   1.276       .  A
O1546      C1553   1.275       .  A
O1547      C1553   1.270       .  A
C1548      C1648   1.483       .  S
C1549      C1641   1.487       .  S
C1550      C1591   1.483       .  S
C1551      C1661   1.473       .  S
C1552      C1578   1.482       .  S
C1553      C1668   1.465       .  S
Zn1554     O1558   1.954       .  S
Zn1554     O1559   2.009       .  S
Zn1554     O1563   2.012       .  S
Zn1554     O1570   2.021       .  S
Zn1555     O1558   1.985       .  S
Zn1555     O1560   2.046       .  S
Zn1555     O1562   2.029       .  S
Zn1555     O1566   2.038       .  S
Zn1556     O1558   1.950       .  S
Zn1556     O1561   2.019       .  S
Zn1556     O1564   1.990       .  S
Zn1556     O1567   2.028       .  S
Zn1557     O1558   1.949       .  S
Zn1557     O1565   2.014       .  S
Zn1557     O1568   1.994       .  S
Zn1557     O1569   2.001       .  S
O1559      C1571   1.272       .  A
O1560      C1572   1.275       .  A
O1561      C1573   1.273       .  A
O1562      C1571   1.275       .  A
O1563      C1573   1.273       .  A
O1564      C1572   1.271       .  A
O1565      C1574   1.273       .  A
O1566      C1575   1.274       .  A
O1567      C1574   1.275       .  A
O1568      C1575   1.271       .  A
O1569      C1576   1.271       .  A
O1570      C1576   1.274       .  A
C1571      C1588   1.472       .  S
C1572      C1601   1.470       .  S
C1573      C1618   1.487       .  S
C1574      C1581   1.475       .  S
C1575      C1611   1.467       .  S
C1576      C1631   1.483       .  S
C1577      C1582   1.398       .  A
C1577      F1584   1.358       .  S
C1579      C1580   1.401       .  A
C1579      F1586   1.358       .  S
C1580      F1585   1.358       .  S
C1582      F1583   1.358       .  S
C1587      C1588   1.405       .  A
C1587      C1592   1.400       .  A
C1587      F1594   1.358       .  S
C1588      C1589   1.402       .  A
C1589      C1590   1.399       .  A
C1589      F1596   1.358       .  S
C1590      C1591   1.411       .  A
C1590      F1595   1.358       .  S
C1591      C1592   1.409       .  A
C1592      F1593   1.358       .  S
C1597      C1602   1.399       .  A
C1597      F1604   1.358       .  S
C1598      C1599   1.406       .  A
C1599      C1600   1.400       .  A
C1599      F1606   1.358       .  S
C1600      F1605   1.358       .  S
C1601      C1602   1.406       .  A
C1602      F1603   1.358       .  S
C1607      C1608   1.406       .  A
C1607      C1612   1.399       .  A
C1607      F1614   1.358       .  S
C1609      C1610   1.399       .  A
C1609      F1616   1.358       .  S
C1610      C1611   1.406       .  A
C1610      F1615   1.358       .  S
C1612      F1613   1.358       .  S
C1617      C1618   1.410       .  A
C1617      C1622   1.399       .  A
C1617      F1624   1.358       .  S
C1618      C1619   1.409       .  A
C1619      C1620   1.400       .  A
C1619      F1626   1.358       .  S
C1620      C1621   1.409       .  A
C1620      F1625   1.358       .  S
C1621      C1622   1.408       .  A
C1622      F1623   1.358       .  S
C1627      C1628   1.411       .  A
C1627      C1632   1.397       .  A
C1627      F1634   1.358       .  S
C1628      C1629   1.408       .  A
C1629      C1630   1.399       .  A
C1629      F1636   1.358       .  S
C1630      C1631   1.410       .  A
C1630      F1635   1.358       .  S
C1631      C1632   1.405       .  A
C1632      F1633   1.358       .  S
C1637      C1642   1.396       .  A
C1637      F1644   1.358       .  S
C1638      C1639   1.408       .  A
C1639      C1640   1.399       .  A
C1639      F1646   1.358       .  S
C1640      F1645   1.358       .  S
C1641      C1642   1.412       .  A
C1642      F1643   1.358       .  S
C1647      C1648   1.408       .  A
C1647      C1652   1.400       .  A
C1647      F1654   1.358       .  S
C1649      C1650   1.399       .  A
C1649      F1656   1.358       .  S
C1650      C1651   1.412       .  A
C1650      F1655   1.358       .  S
C1652      F1653   1.358       .  S
C1657      C1658   1.407       .  A
C1657      C1662   1.402       .  A
C1657      F1664   1.358       .  S
C1658      C1659   1.401       .  A
C1659      C1660   1.397       .  A
C1659      F1666   1.358       .  S
C1660      C1661   1.407       .  A
C1660      F1665   1.358       .  S
C1661      C1662   1.404       .  A
C1662      F1663   1.358       .  S
C1667      C1668   1.401       .  A
C1667      C1672   1.394       .  A
C1667      F1674   1.358       .  S
C1668      C1669   1.405       .  A
C1669      C1670   1.403       .  A
C1669      F1676   1.357       .  S
C1670      C1671   1.406       .  A
C1670      F1675   1.357       .  S
C1671      C1672   1.408       .  A
C1672      F1673   1.359       .  S
C1677      C1682   1.402       .  A
C1677      F1684   1.358       .  S
C1679      C1680   1.398       .  A
C1679      F1686   1.358       .  S
C1680      F1685   1.358       .  S
C1682      F1683   1.358       .  S
C1687      C1692   1.399       .  A
C1687      F1694   1.358       .  S
C1688      C1689   1.408   1_554  A
C1689      C1690   1.403       .  A
C1689      F1696   1.358       .  S
C1690      C1691   1.407       .  A
C1690      F1695   1.358       .  S
C1692      F1693   1.358       .  S
