geometry optimzed in LAMMPS
_audit_creation_date              2020-12-01 
_audit_creation_method            'lammps2cif' 
_symmetry_space_group_name_H-M    'P1' 
_symmetry_Int_Tables_number       1 
_symmetry_cell_setting            triclinic 
loop_ 
_symmetry_equiv_pos_as_xyz 
  x,y,z 
_cell_length_a                    50.07570296 
_cell_length_b                    50.06556617509118 
_cell_length_c                    50.062708044766836 
_cell_angle_alpha                 89.9688008158471 
_cell_angle_beta                  89.96837941740827 
_cell_angle_gamma                 90.03333805510078 
loop_ 
_atom_site_label 
_atom_site_type_symbol 
_atom_site_fract_x 
_atom_site_fract_y 
_atom_site_fract_z 
_atom_site_charge 
O1          O  0.85326623  0.47200971  0.89120835    -0.72500
O2          O  0.89202932  0.52964208  0.85157623    -0.73500
O3          O  0.85224380  0.52891805  0.89145508    -0.62100
O4          O  0.89298320  0.47297481  0.85121968    -0.70500
O5          O  0.86200830  0.47308370  0.81945785    -0.70100
O6          O  0.82050175  0.52819279  0.86048422    -0.61300
O7          O  0.86080599  0.52927301  0.82005503    -0.73800
O8          O  0.82166092  0.47164727  0.86009453    -0.72600
Cu9        Cu  0.87369747  0.50089149  0.87246461     1.04600
Cu10       Cu  0.84009958  0.50051960  0.83893056     1.04300
C11         C  0.83135425  0.46279128  0.88197844     0.93700
C12         C  0.88271082  0.53832213  0.82950109     0.92800
C13         C  0.82994860  0.53730455  0.88236579     0.85000
C14         C  0.88412388  0.46454775  0.82883790     0.91200
O15         O  0.71386393  0.64066078  0.06310114    -0.72500
O16         O  0.67469775  0.67955506  0.00556286    -0.73500
O17         O  0.71441390  0.63995546  0.00604606    -0.62100
O18         O  0.67408029  0.68080130  0.06239217    -0.70500
O19         O  0.70516837  0.71246071  0.06160046    -0.70100
O20         O  0.74615953  0.67096740  0.00657455    -0.61300
O21         O  0.70593548  0.71111154  0.00539582    -0.73800
O22         O  0.74559557  0.67169013  0.06299179    -0.72600
Cu23       Cu  0.69318631  0.65913686  0.03434299     1.04600
Cu24       Cu  0.72684140  0.69265449  0.03418865     1.04300
C25         C  0.73596376  0.64979741  0.07192953     0.93700
C26         C  0.68413143  0.70140044  0.99641909     0.92800
C27         C  0.73662236  0.64914377  0.99744518     0.85000
C28         C  0.68300434  0.70334210  0.07037557     0.91200
O29         O  0.56146187  0.83092006  0.82409800    -0.72500
O30         O  0.50794299  0.78458311  0.86270814    -0.73500
O31         O  0.50529059  0.82735015  0.82476723    -0.62100
O32         O  0.56417906  0.78822137  0.86205809    -0.70500
O33         O  0.56296155  0.81816967  0.89479645    -0.70100
O34         O  0.50383875  0.85695787  0.85779280    -0.61300
O35         O  0.50601922  0.81476894  0.89514558    -0.73800
O36         O  0.56058799  0.86027885  0.85732174    -0.72600
Cu37       Cu  0.53478569  0.80671907  0.84224402     1.04600
Cu38       Cu  0.53330663  0.83852882  0.87745567     1.04300
C39         C  0.56936374  0.85283971  0.83453435     0.93700
C40         C  0.49843158  0.79261377  0.88499084     0.92800
C41         C  0.49551369  0.84842655  0.83526609     0.85000
C42         C  0.57275546  0.79708284  0.88435295     0.91200
O43         O  0.71576984  0.97180861  0.67489296    -0.72500
O44         O  0.67560589  0.02871350  0.71388399    -0.73500
O45         O  0.71631929  0.02898796  0.67497422    -0.62100
O46         O  0.67515526  0.97200656  0.71410739    -0.70500
O47         O  0.70550153  0.97206700  0.74644108    -0.70100
O48         O  0.74734390  0.02814900  0.70664833    -0.61300
O49         O  0.70600533  0.02836180  0.74619908    -0.73800
O50         O  0.74683833  0.97153610  0.70654165    -0.72600
Cu51       Cu  0.69469704  0.00037159  0.69333002     1.04600
Cu52       Cu  0.72755494  0.00000820  0.72756577     1.04300
C53         C  0.73757351  0.96270664  0.68446253     0.93700
C54         C  0.68422931  0.03723483  0.73627939     0.92800
C55         C  0.73831811  0.03751608  0.68468664     0.85000
C56         C  0.68356919  0.96346662  0.73664877     0.91200
O57         O  0.06002777  0.68392872  0.67516893    -0.72500
O58         O  0.00277493  0.64483366  0.71472706    -0.73500
O59         O  0.00332072  0.68481622  0.67509389    -0.62100
O60         O  0.05950341  0.64391211  0.71500051    -0.70500
O61         O  0.05938947  0.67501161  0.74665217    -0.70100
O62         O  0.00409810  0.71650520  0.70614649    -0.61300
O63         O  0.00338644  0.67590745  0.74641999    -0.73800
O64         O  0.06029118  0.71560722  0.70624507    -0.72600
Cu65       Cu  0.03140683  0.66330257  0.69388078     1.04600
Cu66       Cu  0.03182102  0.69688694  0.72746659     1.04300
C67         C  0.06898483  0.70598997  0.68428750     0.93700
C68         C  0.99435117  0.65400876  0.73695100     0.92800
C69         C  0.99507245  0.70715562  0.68420167     0.85000
C70         C  0.06784415  0.65279597  0.73740087     0.91200
O71         O  0.85460517  0.86225286  0.55879248    -0.72500
O72         O  0.89302543  0.81957998  0.50242834    -0.73500
O73         O  0.85454870  0.86108004  0.50165305    -0.62100
O74         O  0.89318780  0.82133652  0.55939561    -0.70500
O75         O  0.86107354  0.79069919  0.56017383    -0.70100
O76         O  0.82199138  0.83094573  0.50265788    -0.61300
O77         O  0.86101566  0.78886853  0.50398934    -0.73800
O78         O  0.82205692  0.83209247  0.55913340    -0.72600
Cu79       Cu  0.87496251  0.84213584  0.53048016     1.04600
Cu80       Cu  0.84037369  0.80960957  0.53145476     1.04300
C81         C  0.83232885  0.85370831  0.56792083     0.93700
C82         C  0.88326376  0.79726069  0.49478176     0.92800
C83         C  0.83205142  0.85249698  0.49330512     0.85000
C84         C  0.88330213  0.79979584  0.56879799     0.91200
O85         O  0.55834991  0.13952935  0.84963549    -0.72500
O86         O  0.50428330  0.18121213  0.89095214    -0.73500
O87         O  0.50153766  0.14190757  0.85104941    -0.62100
O88         O  0.56098621  0.17896498  0.88964773    -0.70500
O89         O  0.56098965  0.21082438  0.85871083    -0.70100
O90         O  0.50228802  0.17324447  0.81958979    -0.61300
O91         O  0.50490223  0.21311579  0.86006670    -0.73800
O92         O  0.55853301  0.17076888  0.81807953    -0.72600
Cu93       Cu  0.53128082  0.15928217  0.87138142     1.04600
Cu94       Cu  0.53172459  0.19309476  0.83797400     1.04300
C95         C  0.56689227  0.14851490  0.82735902     0.93700
C96         C  0.49619055  0.20371154  0.88213996     0.92800
C97         C  0.49264037  0.15169732  0.82926051     0.85000
C98         C  0.56997271  0.20099383  0.88046954     0.91200
O99         O  0.71303395  0.35697365  0.00094123    -0.72500
O100        O  0.67457251  0.31794943  0.05965452    -0.73500
O101        O  0.71391290  0.35825334  0.05789120    -0.62100
O102        O  0.67366619  0.31657342  0.00278347    -0.70500
O103        O  0.70530114  0.28547816  0.00276885    -0.70100
O104        O  0.74575746  0.32736946  0.05802781    -0.61300
O105        O  0.70572488  0.28638393  0.05914627    -0.73800
O106        O  0.74526537  0.32651698  0.00167354    -0.72600
Cu107      Cu  0.69270657  0.33851159  0.03029039     1.04600
Cu108      Cu  0.72664904  0.30533921  0.03040373     1.04300
C109        C  0.73534547  0.34808805  0.99233339     0.93700
C110        C  0.68390163  0.29587962  0.06838034     0.92800
C111        C  0.73616077  0.34938050  0.06662113     0.85000
C112        C  0.68298729  0.29443510  0.99425306     0.91200
O113        O  0.82246819  0.46783191  0.20342875    -0.72500
O114        O  0.86219424  0.52576326  0.24226554    -0.73500
O115        O  0.82195953  0.52432297  0.20192668    -0.62100
O116        O  0.86277833  0.46939463  0.24398452    -0.70500
O117        O  0.89389321  0.46863263  0.21233912    -0.70100
O118        O  0.85383182  0.52423560  0.17103569    -0.61300
O119        O  0.89343424  0.52542914  0.21072105    -0.73800
O120        O  0.85430133  0.46737931  0.17249882    -0.72600
Cu121      Cu  0.84120298  0.49683204  0.22402554     1.04600
Cu122      Cu  0.87492670  0.49637719  0.19056957     1.04300
C123        C  0.83223218  0.45856799  0.18175206     0.93700
C124        C  0.88406106  0.53464342  0.23255458     0.92800
C125        C  0.83165100  0.53307182  0.17999444     0.85000
C126        C  0.88481842  0.46045340  0.23472796     0.91200
O127        O  0.06191374  0.63674430  0.35371457    -0.72500
O128        O  0.00376494  0.67338984  0.39460746    -0.73500
O129        O  0.00522484  0.63461959  0.35348120    -0.62100
O130        O  0.06036496  0.67552644  0.39452042    -0.70500
O131        O  0.05842817  0.70808792  0.36440323    -0.70100
O132        O  0.00495619  0.66611453  0.32218163    -0.61300
O133        O  0.00216790  0.70518501  0.36369283    -0.73800
O134        O  0.06097922  0.66877393  0.32297997    -0.72600
Cu135      Cu  0.03285468  0.65392834  0.37512459     1.04600
Cu136      Cu  0.03160152  0.68818595  0.34223311     1.04300
C137        C  0.07042222  0.64680622  0.33188356     0.93700
C138        C  0.99398560  0.69521172  0.38573398     0.92800
C139        C  0.99667864  0.64377785  0.33125083     0.85000
C140        C  0.06773427  0.69844606  0.38611440     0.91200
O141        O  0.20220452  0.78558568  0.50697476    -0.72500
O142        O  0.24585812  0.82800590  0.55935855    -0.73500
O143        O  0.20406836  0.78921959  0.56305612    -0.62100
O144        O  0.24409666  0.82447199  0.50323907    -0.70500
O145        O  0.21320654  0.85629864  0.50192620    -0.70100
O146        O  0.17396826  0.82182028  0.56243889    -0.61300
O147        O  0.21511041  0.85996903  0.55839288    -0.73800
O148        O  0.17197484  0.81803357  0.50581883    -0.72600
Cu149      Cu  0.22512893  0.80564510  0.53317987     1.04600
Cu150      Cu  0.19252420  0.84015010  0.53208442     1.04300
C151        C  0.18016412  0.79509735  0.49831758     0.93700
C152        C  0.23723475  0.85073240  0.56706735     0.92800
C153        C  0.18273129  0.79989637  0.57204874     0.85000
C154        C  0.23501200  0.84620126  0.49343988     0.91200
O155        O  0.35821593  0.02649626  0.67332008    -0.72500
O156        O  0.39609823  0.96889576  0.71411142    -0.73500
O157        O  0.35865383  0.96936483  0.67200441    -0.62100
O158        O  0.39542488  0.02574329  0.71522420    -0.70500
O159        O  0.36280514  0.02445500  0.74533623    -0.70100
O160        O  0.32542614  0.96905257  0.70144142    -0.61300
O161        O  0.36340081  0.96829387  0.74413801    -0.73800
O162        O  0.32516707  0.02549744  0.70292537    -0.72600
Cu163      Cu  0.37826875  0.99759875  0.69263229     1.04600
Cu164      Cu  0.34301990  0.99671392  0.72448451     1.04300
C165        C  0.33582813  0.03524020  0.68187558     0.93700
C166        C  0.38590663  0.95982189  0.73567646     0.92800
C167        C  0.33603111  0.96057045  0.67985046     0.85000
C168        C  0.38488840  0.03401189  0.73691926     0.91200
O169        O  0.67651921  0.97458031  0.35043153    -0.72500
O170        O  0.71483581  0.03222269  0.39039398    -0.73500
O171        O  0.67472516  0.03161002  0.35109819    -0.62100
O172        O  0.71660548  0.97559051  0.38994987    -0.70500
O173        O  0.74819385  0.97709577  0.35880713    -0.70100
O174        O  0.70543567  0.03239124  0.31905434    -0.61300
O175        O  0.74614290  0.03328887  0.35891321    -0.73800
O176        O  0.70748386  0.97605434  0.31864766    -0.72600
Cu177      Cu  0.69456970  0.00345423  0.37154457     1.04600
Cu178      Cu  0.72790110  0.00475751  0.33770607     1.04300
C179        C  0.68591082  0.96634450  0.32820002     0.93700
C180        C  0.73667395  0.04152993  0.38110606     0.92800
C181        C  0.68347806  0.04079324  0.32896455     0.85000
C182        C  0.73906331  0.96777175  0.38076783     0.91200
O183        O  0.56195250  0.79088231  0.20468169    -0.72500
O184        O  0.50692391  0.83038319  0.24753176    -0.73500
O185        O  0.50557896  0.79082243  0.20665910    -0.62100
O186        O  0.56323427  0.83071173  0.24564463    -0.70500
O187        O  0.56249179  0.86227143  0.21444204    -0.70100
O188        O  0.50439718  0.82297810  0.17607401    -0.61300
O189        O  0.50553022  0.86197752  0.21637562    -0.73800
O190        O  0.56127483  0.82280453  0.17387059    -0.72600
Cu191      Cu  0.53450417  0.80958543  0.22722129     1.04600
Cu192      Cu  0.53342628  0.84363425  0.19412098     1.04300
C193        C  0.57009195  0.80044715  0.18244712     0.93700
C194        C  0.49744857  0.85229323  0.23856200     0.92800
C195        C  0.49583581  0.80079079  0.18529735     0.85000
C196        C  0.57180294  0.85283969  0.23622355     0.91200
O197        O  0.24236113  0.47577927  0.86635681    -0.72500
O198        O  0.20110098  0.53126851  0.82566024    -0.73500
O199        O  0.24091123  0.53198183  0.86649698    -0.62100
O200        O  0.20251677  0.47503574  0.82537547    -0.70500
O201        O  0.17084384  0.47425701  0.85646566    -0.70100
O202        O  0.20919485  0.53117784  0.89754222    -0.61300
O203        O  0.16971899  0.53098794  0.85703871    -0.73800
O204        O  0.21017352  0.47434526  0.89688247    -0.72600
Cu205      Cu  0.22284147  0.50356292  0.84488353     1.04600
Cu206      Cu  0.18887171  0.50267267  0.87806826     1.04300
C207        C  0.23273801  0.46637257  0.88804144     0.93700
C208        C  0.17884448  0.53970208  0.83485936     0.92800
C209        C  0.23127181  0.54029914  0.88860362     0.85000
C210        C  0.18051120  0.46583700  0.83441098     0.91200
O211        O  0.39310512  0.68214737  0.06468999    -0.72500
O212        O  0.35075387  0.64038013  0.01115068    -0.73500
O213        O  0.39172498  0.67910295  0.00773787    -0.62100
O214        O  0.35267387  0.64336251  0.06795608    -0.70500
O215        O  0.32202074  0.67541398  0.06779608    -0.70100
O216        O  0.36096946  0.71101147  0.00674016    -0.61300
O217        O  0.31948698  0.67185895  0.01159960    -0.73800
O218        O  0.36303088  0.71473279  0.06328765    -0.72600
Cu219      Cu  0.37313307  0.66015448  0.03788317     1.04600
Cu220      Cu  0.34030684  0.69441987  0.03728188     1.04300
C221        C  0.38464024  0.70489411  0.07253238     0.93700
C222        C  0.32825559  0.64941937  0.00328047     0.92800
C223        C  0.38259098  0.70072499  0.99778728     0.85000
C224        C  0.33131477  0.65362586  0.07734348     0.91200
O225        O  0.24779883  0.52625299  0.20829178    -0.72500
O226        O  0.20510074  0.47022834  0.24623338    -0.73500
O227        O  0.24665713  0.46997480  0.20722077    -0.62100
O228        O  0.20617388  0.52619272  0.24719049    -0.70500
O229        O  0.17580378  0.52738225  0.21485026    -0.70100
O230        O  0.21600404  0.47088605  0.17513393    -0.61300
O231        O  0.17499649  0.47055975  0.21361537    -0.73800
O232        O  0.21696755  0.52800314  0.17643301    -0.72600
Cu233      Cu  0.22752098  0.49809765  0.22834372     1.04600
Cu234      Cu  0.19490544  0.49923913  0.19382398     1.04300
C235        C  0.23894575  0.53613590  0.18651711     0.93700
C236        C  0.18334909  0.46173257  0.23603887     0.92800
C237        C  0.23762623  0.46159877  0.18489498     0.85000
C238        C  0.18451781  0.53543448  0.23740317     0.91200
O239        O  0.35748402  0.28632183  0.06040011    -0.72500
O240        O  0.32098788  0.32874928  0.00320034    -0.73500
O241        O  0.36019461  0.28711941  0.00415907    -0.62100
O242        O  0.31874048  0.32787651  0.05947809    -0.70500
O243        O  0.35119110  0.35813328  0.06108174    -0.70100
O244        O  0.39215180  0.31789452  0.00572787    -0.61300
O245        O  0.35350700  0.35893400  0.00444264    -0.73800
O246        O  0.38934326  0.31717480  0.06261073    -0.72600
Cu247      Cu  0.33820891  0.30642191  0.03168889     1.04600
Cu248      Cu  0.37269792  0.33905980  0.03348492     1.04300
C249        C  0.37903586  0.29526596  0.07065008     0.93700
C250        C  0.33127916  0.35063734  0.99507492     0.92800
C251        C  0.38278407  0.29612336  0.99637868     0.85000
C252        C  0.32860687  0.34939830  0.06901347     0.91200
O253        O  0.50233219  0.21307350  0.20492279    -0.72500
O254        O  0.55960563  0.17302801  0.24403710    -0.73500
O255        O  0.55905568  0.21413741  0.20422690    -0.62100
O256        O  0.50306648  0.17172307  0.24431270    -0.70500
O257        O  0.50366432  0.14133144  0.21202595    -0.70100
O258        O  0.55921009  0.18308229  0.17257093    -0.61300
O259        O  0.56027215  0.14269017  0.21167065    -0.73800
O260        O  0.50233641  0.18202088  0.17323015    -0.72600
Cu261      Cu  0.53099935  0.19413140  0.22551157     1.04600
Cu262      Cu  0.53137727  0.16126932  0.19126662     1.04300
C263        C  0.49319893  0.20370005  0.18303819     0.93700
C264        C  0.56890169  0.15152870  0.23398339     0.92800
C265        C  0.56799263  0.20503440  0.18207455     0.85000
C266        C  0.49471296  0.14972150  0.23437180     0.91200
O267        O  0.00634530  0.33401236  0.74017200    -0.72500
O268        O  0.06355879  0.29271543  0.70262875    -0.73500
O269        O  0.06246061  0.33371484  0.74209114    -0.62100
O270        O  0.00748588  0.29296568  0.70064884    -0.70500
O271        O  0.00840054  0.32423993  0.66913675    -0.70100
O272        O  0.06433577  0.36425302  0.70990127    -0.61300
O273        O  0.06518709  0.32376776  0.67091893    -0.73800
O274        O  0.00744174  0.36481812  0.70821616    -0.72600
Cu275      Cu  0.03491400  0.31226798  0.72251152     1.04600
Cu276      Cu  0.03637603  0.34535037  0.68841127     1.04300
C277        C  0.99799914  0.35594700  0.73020846     0.93700
C278        C  0.07327725  0.30171596  0.68082536     0.92800
C279        C  0.07204253  0.35532564  0.73250984     0.85000
C280        C  0.99934165  0.30223337  0.67834086     0.91200
O281        O  0.85299088  0.14013511  0.50665332    -0.72500
O282        O  0.89499620  0.18091979  0.56074978    -0.73500
O283        O  0.85444790  0.14182003  0.56344735    -0.62100
O284        O  0.89321890  0.17916797  0.50392919    -0.70500
O285        O  0.86247180  0.21114021  0.50390976    -0.70100
O286        O  0.82359777  0.17368540  0.56338200    -0.61300
O287        O  0.86469054  0.21332488  0.56022871    -0.73800
O288        O  0.82166644  0.17158050  0.50721979    -0.72600
Cu289      Cu  0.87499773  0.15941224  0.53372610     1.04600
Cu290      Cu  0.84202087  0.19357832  0.53370481     1.04300
C291        C  0.83069685  0.14937379  0.49853917     0.93700
C292        C  0.88661713  0.20358597  0.56884609     0.92800
C293        C  0.83275968  0.15169944  0.57254604     0.85000
C294        C  0.88390647  0.20098754  0.49453734     0.91200
O295        O  0.21019508  0.21404951  0.56331494    -0.72500
O296        O  0.24879939  0.17230305  0.50712513    -0.73500
O297        O  0.20874126  0.21293058  0.50704252    -0.62100
O298        O  0.25032045  0.17327891  0.56345335    -0.70500
O299        O  0.21818667  0.14272688  0.56519338    -0.70100
O300        O  0.17761753  0.18130707  0.50781162    -0.61300
O301        O  0.21712073  0.14121447  0.50842199    -0.73800
O302        O  0.17866642  0.18280801  0.56456573    -0.72600
Cu303      Cu  0.23065447  0.19423946  0.53518680     1.04600
Cu304      Cu  0.19681684  0.16092540  0.53655898     1.04300
C305        C  0.18819476  0.20504421  0.57257582     0.93700
C306        C  0.23903886  0.15018480  0.49900529     0.92800
C307        C  0.18661196  0.20335349  0.49864533     0.85000
C308        C  0.24068443  0.15172927  0.57318473     0.91200
O309        O  0.36008483  0.97106365  0.32303357    -0.72500
O310        O  0.31990924  0.02863880  0.36107612    -0.73500
O311        O  0.36077580  0.02728793  0.32111729    -0.62100
O312        O  0.31956220  0.97249968  0.36301478    -0.70500
O313        O  0.35104936  0.97258175  0.39426969    -0.70100
O314        O  0.39136744  0.02839521  0.35323147    -0.61300
O315        O  0.35121888  0.02944639  0.39253432    -0.73800
O316        O  0.39117160  0.97145447  0.35469639    -0.72600
Cu317      Cu  0.33897896  0.99985025  0.34094577     1.04600
Cu318      Cu  0.37228605  0.00050517  0.37479767     1.04300
C319        C  0.38196113  0.96230929  0.33275316     0.93700
C320        C  0.32922518  0.03795720  0.38288890     0.92800
C321        C  0.38256998  0.03646595  0.33069529     0.85000
C322        C  0.32888173  0.96389812  0.38516184     0.91200
O323        O  0.06142871  0.31747085  0.39477903    -0.72500
O324        O  0.00669629  0.35765328  0.35228328    -0.73500
O325        O  0.00452619  0.31764640  0.39172719    -0.62100
O326        O  0.06318051  0.35762586  0.35515923    -0.70500
O327        O  0.06483262  0.32657544  0.32350769    -0.70100
O328        O  0.00613195  0.28622254  0.36043823    -0.61300
O329        O  0.00860196  0.32694708  0.32032008    -0.73800
O330        O  0.06244509  0.28589217  0.36364527    -0.72600
Cu331      Cu  0.03392367  0.33864780  0.37459882     1.04600
Cu332      Cu  0.03557778  0.30527800  0.34086622     1.04300
C333        C  0.07042188  0.29528349  0.38599571     0.93700
C334        C  0.99923581  0.34881433  0.32957063     0.92800
C335        C  0.99609119  0.29568826  0.38188608     0.85000
C336        C  0.07293831  0.34864803  0.33338160     0.91200
C337        C  0.14240014  0.22593352  0.44934040     0.30200
C338        C  0.12229196  0.22374333  0.42994019    -0.36100
C339        C  0.11201599  0.24788279  0.42011166     0.16200
C340        C  0.12059234  0.27249175  0.42910943     0.22000
C341        C  0.14113856  0.27468273  0.44803602    -0.34200
C342        C  0.15173833  0.25055030  0.45752136     0.16100
O343        O  0.15372483  0.20601365  0.46234546    -0.26300
C344        C  0.17090986  0.21802035  0.47868045     0.05900
C345        C  0.17071553  0.24569764  0.47638954    -0.31100
O346        O  0.10713425  0.29242743  0.41836841    -0.23000
C347        C  0.09007568  0.28044187  0.40189803    -0.03000
C348        C  0.09230242  0.25275918  0.40201768    -0.17400
H349        H  0.11481710  0.20456048  0.42335188     0.20600
H350        H  0.14804179  0.29386196  0.45522886     0.19000
H351        H  0.18192981  0.26012657  0.48793683     0.18900
H352        H  0.08051960  0.23836047  0.39101141     0.14800
C353        C  0.30641649  0.08899661  0.42424539     0.30200
C354        C  0.30874063  0.10978311  0.44279506    -0.36100
C355        C  0.28489991  0.11815411  0.45471406     0.16200
C356        C  0.26049875  0.10659597  0.44907611     0.22000
C357        C  0.25808061  0.08623913  0.43003603    -0.34200
C358        C  0.28188327  0.07815785  0.41778423     0.16100
O359        O  0.32632167  0.07673105  0.41226776    -0.26300
C360        C  0.31431741  0.05822642  0.39753909     0.05900
C361        C  0.28668532  0.05829355  0.39991534    -0.31100
O362        O  0.24107819  0.11637927  0.46384479    -0.23000
C363        C  0.25317654  0.13470789  0.47875017    -0.03000
C364        C  0.28039144  0.13682337  0.47386377    -0.17400
H365        H  0.32787587  0.11833264  0.44808595     0.20600
H366        H  0.23908945  0.07693461  0.42555857     0.19000
H367        H  0.27246426  0.04458994  0.39111729     0.18900
H368        H  0.29482468  0.14959847  0.48365421     0.14800
C369        C  0.95421721  0.24914177  0.41276629     0.30200
C370        C  0.94673006  0.22377466  0.42203758    -0.36100
C371        C  0.92646645  0.22328953  0.44137653     0.16200
C372        C  0.91392119  0.24611805  0.45044355     0.22000
C373        C  0.92135677  0.27146566  0.44112426    -0.34200
C374        C  0.94210278  0.27199903  0.42233777     0.16100
O375        O  0.97414900  0.25440962  0.39636911    -0.26300
C376        C  0.97500638  0.28094672  0.39577993     0.05900
C377        C  0.95558470  0.29296818  0.41153514    -0.31100
O378        O  0.89657532  0.24116538  0.46962609    -0.23000
C379        C  0.89830793  0.21489943  0.47314948    -0.03000
C380        C  0.91654055  0.20270121  0.45611740    -0.17400
H381        H  0.95681287  0.20580076  0.41552988     0.20600
H382        H  0.91243620  0.28955804  0.44888273     0.19000
H383        H  0.95247716  0.31405364  0.41515943     0.18900
H384        H  0.92226258  0.18186814  0.45536930     0.14800
C385        C  0.95936233  0.25502965  0.64614567     0.30200
C386        C  0.95122485  0.22939463  0.63839753    -0.36100
C387        C  0.93152924  0.22834307  0.61856751     0.16200
C388        C  0.92017210  0.25093055  0.60753123     0.22000
C389        C  0.92847377  0.27655999  0.61511651    -0.34200
C390        C  0.94857948  0.27760818  0.63452948     0.16100
O391        O  0.97817341  0.26069739  0.66363632    -0.26300
C392        C  0.97967853  0.28719774  0.66287233     0.05900
C393        C  0.96184172  0.29880747  0.64508760    -0.31100
O394        O  0.90233945  0.24525378  0.58904292    -0.23000
C395        C  0.90260543  0.21872709  0.58800838    -0.03000
C396        C  0.92041319  0.20711590  0.60583083    -0.17400
H397        H  0.96004206  0.21154125  0.64680955     0.20600
H398        H  0.92025958  0.29440262  0.60609302     0.19000
H399        H  0.95925494  0.31977227  0.64047177     0.18900
H400        H  0.92468935  0.18612260  0.60873898     0.14800
C401        C  0.12485641  0.27715701  0.64083932     0.30200
C402        C  0.14592167  0.27845030  0.62242709    -0.36100
C403        C  0.15549742  0.25386200  0.61313579     0.16200
C404        C  0.14475728  0.22971621  0.62108308     0.22000
C405        C  0.12415416  0.22840646  0.63995704    -0.34200
C406        C  0.11488690  0.25295072  0.64956593     0.16100
O407        O  0.11177184  0.29763094  0.65091112    -0.26300
C408        C  0.09360207  0.28632544  0.66665378     0.05900
C409        C  0.09470258  0.25861793  0.66678895    -0.31100
O410        O  0.15521581  0.20932011  0.60824683    -0.23000
C411        C  0.17321358  0.22050372  0.59225453    -0.03000
C412        C  0.17446395  0.24813607  0.59454208    -0.17400
H413        H  0.15381527  0.29729361  0.61533360     0.20600
H414        H  0.11549824  0.20959614  0.64619928     0.19000
H415        H  0.08168190  0.24473646  0.67707348     0.18900
H416        H  0.18655107  0.26199524  0.58314873     0.14800
C417        C  0.45241433  0.11742462  0.28000974     0.30200
C418        C  0.44158190  0.11130924  0.30514691    -0.36100
C419        C  0.42434377  0.08921526  0.30606841     0.16200
C420        C  0.41775222  0.07446919  0.28371449     0.22000
C421        C  0.42876390  0.08042853  0.25864389    -0.34200
C422        C  0.44634601  0.10222718  0.25781873     0.16100
O423        O  0.46970940  0.13662764  0.27469374    -0.26300
C424        C  0.47493647  0.13349818  0.24881611     0.05900
C425        C  0.46101222  0.11237820  0.23732284    -0.31100
O426        O  0.40151757  0.05444853  0.28922545    -0.23000
C427        C  0.39800719  0.05617962  0.31549991    -0.03000
C428        C  0.41178631  0.07732444  0.32707090    -0.17400
H429        H  0.44666646  0.12263430  0.32283806     0.20600
H430        H  0.42431916  0.06860025  0.24110875     0.19000
H431        H  0.46190672  0.10530826  0.21691085     0.18900
H432        H  0.41262165  0.08288518  0.34794561     0.14800
C433        C  0.41736916  0.27168453  0.12381456     0.30200
C434        C  0.43537177  0.27366585  0.14515700    -0.36100
C435        C  0.44715137  0.24967864  0.15342795     0.16200
C436        C  0.44170933  0.22546812  0.14138545     0.22000
C437        C  0.42299635  0.22335295  0.12069633    -0.34200
C438        C  0.41106173  0.24729524  0.11256753     0.16100
O439        O  0.40636152  0.29182148  0.11097266    -0.26300
C440        C  0.39244886  0.28010246  0.09164593     0.05900
C441        C  0.39430576  0.25243480  0.09183087    -0.31100
O442        O  0.45693620  0.20605802  0.15045211    -0.23000
C443        C  0.47201920  0.21790315  0.16879680    -0.03000
C444        C  0.46666488  0.24497858  0.17173374    -0.17400
H445        H  0.44075983  0.29271042  0.15384778     0.20600
H446        H  0.41891868  0.20455266  0.11083959     0.19000
H447        H  0.38612022  0.23840176  0.07756887     0.18900
H448        H  0.47667206  0.25930097  0.18446287     0.14800
C449        C  0.30645421  0.39249500  0.11909043     0.30200
C450        C  0.30876208  0.41285772  0.13812756    -0.36100
C451        C  0.28487609  0.42117963  0.15002010     0.16200
C452        C  0.26033849  0.41054190  0.14327150     0.22000
C453        C  0.25811186  0.38968801  0.12472261    -0.34200
C454        C  0.28206576  0.38109655  0.11310114     0.16100
O455        O  0.32600510  0.38269793  0.10452563    -0.26300
C456        C  0.31405813  0.36452522  0.08931054     0.05900
C457        C  0.28675739  0.36248077  0.09386628    -0.31100
O458        O  0.24040045  0.42300840  0.15505104    -0.23000
C459        C  0.25242200  0.44142964  0.16991641    -0.03000
C460        C  0.28006058  0.44109738  0.16782003    -0.17400
H461        H  0.32776101  0.42203406  0.14283097     0.20600
H462        H  0.23898321  0.38128532  0.11918280     0.19000
H463        H  0.27239377  0.34987564  0.08376226     0.18900
H464        H  0.29432326  0.45459530  0.17686428     0.14800
C465        C  0.11508175  0.38024868  0.28756029     0.30200
C466        C  0.12547063  0.38625593  0.26221947    -0.36100
C467        C  0.14191457  0.40889224  0.26079879     0.16200
C468        C  0.14817484  0.42413568  0.28291935     0.22000
C469        C  0.13760631  0.41829090  0.30814888    -0.34200
C470        C  0.12080592  0.39599631  0.30946189     0.16100
O471        O  0.09824119  0.36082912  0.29328042    -0.26300
C472        C  0.09299886  0.36440007  0.31908284     0.05900
C473        C  0.10644588  0.38597556  0.33019123    -0.31100
O474        O  0.16392265  0.44435655  0.27712102    -0.23000
C475        C  0.16744690  0.44231795  0.25090987    -0.03000
C476        C  0.15413095  0.42076943  0.23956253    -0.17400
H477        H  0.12059919  0.37447676  0.24476615     0.20600
H478        H  0.14181137  0.43055700  0.32544176     0.19000
H479        H  0.10519894  0.39358962  0.35038849     0.18900
H480        H  0.15364925  0.41475479  0.21880386     0.14800
C481        C  0.26268055  0.59039516  0.14936222     0.30200
C482        C  0.26083406  0.61276867  0.13256948    -0.36100
C483        C  0.28502629  0.62243197  0.12225166     0.16200
C484        C  0.30932119  0.61068827  0.12788962     0.22000
C485        C  0.31125880  0.58890223  0.14541725    -0.34200
C486        C  0.28709790  0.57939392  0.15590456     0.16100
O487        O  0.24248474  0.57674848  0.15935748    -0.26300
C488        C  0.25416151  0.55709235  0.17287340     0.05900
C489        C  0.28187680  0.55784395  0.17166793    -0.31100
O490        O  0.32895033  0.62081422  0.11356098    -0.23000
C491        C  0.31718269  0.63956415  0.09886415    -0.03000
C492        C  0.28991890  0.64173837  0.10367908    -0.17400
H493        H  0.24178043  0.62130401  0.12699899     0.20600
H494        H  0.33014861  0.57929037  0.14963196     0.19000
H495        H  0.29598336  0.54378683  0.18007153     0.18900
H496        H  0.27554291  0.65423239  0.09346245     0.14800
C497        C  0.15092110  0.42455211  0.78649881     0.30200
C498        C  0.14476788  0.41561677  0.76065780    -0.36100
C499        C  0.12369943  0.39723979  0.75881052     0.16200
C500        C  0.11012091  0.38780771  0.78091950     0.22000
C501        C  0.11619033  0.39681301  0.80668682    -0.34200
C502        C  0.13680190  0.41561622  0.80846546     0.16100
O503        O  0.16881249  0.44282401  0.79278714    -0.26300
C504        C  0.16582222  0.44577884  0.81902918     0.05900
C505        C  0.14618910  0.42941378  0.82984527    -0.31100
O506        O  0.09071705  0.37124654  0.77458719    -0.23000
C507        C  0.09159450  0.37037483  0.74808676    -0.03000
C508        C  0.11163102  0.38617739  0.73710382    -0.17400
H509        H  0.15510254  0.42308410  0.74318720     0.20600
H510        H  0.10509031  0.39021250  0.82403704     0.19000
H511        H  0.13943986  0.42831824  0.85036347     0.18900
H512        H  0.11630110  0.38931565  0.71622192     0.14800
C513        C  0.25526422  0.58722370  0.93440954     0.30200
C514        C  0.25416381  0.60456859  0.95637673    -0.36100
C515        C  0.27867783  0.61512474  0.96483959     0.16200
C516        C  0.30265211  0.60866174  0.95282399     0.22000
C517        C  0.30367011  0.59181865  0.93051578    -0.34200
C518        C  0.27913885  0.58162849  0.92178929     0.16100
O519        O  0.23505219  0.57387981  0.92408874    -0.26300
C520        C  0.24612103  0.55994649  0.90436275     0.05900
C521        C  0.27343148  0.56414654  0.90184480    -0.31100
O522        O  0.32328746  0.61968404  0.96484167    -0.23000
C523        C  0.31232943  0.63380764  0.98444695    -0.03000
C524        C  0.28465596  0.63187646  0.98538354    -0.17400
H525        H  0.23558730  0.60913221  0.96644423     0.20600
H526        H  0.32233735  0.58664910  0.92092101     0.19000
H527        H  0.28723641  0.55463437  0.88819435     0.18900
H528        H  0.27108052  0.64093801  0.99956020     0.14800
C529        C  0.28467300  0.38458343  0.95580493     0.30200
C530        C  0.25903042  0.39242815  0.94776988    -0.36100
C531        C  0.25785056  0.41393434  0.92988648     0.16200
C532        C  0.28037310  0.42649624  0.92009185     0.22000
C533        C  0.30602869  0.41883396  0.92835925    -0.34200
C534        C  0.30718398  0.39765446  0.94666958     0.16100
O535        O  0.29031060  0.36570858  0.97325127    -0.26300
C536        C  0.31673096  0.36691151  0.97558425     0.05900
C537        C  0.32833452  0.38645261  0.95958648    -0.31100
O538        O  0.27457557  0.44621666  0.90361521    -0.23000
C539        C  0.24801112  0.44651048  0.90320141    -0.03000
C540        C  0.23651565  0.42698480  0.91926387    -0.17400
H541        H  0.24122328  0.38279788  0.95537322     0.20600
H542        H  0.32379715  0.42900767  0.92140250     0.19000
H543        H  0.34919833  0.39193941  0.95815375     0.18900
H544        H  0.21551984  0.42306923  0.92262981     0.14800
C545        C  0.45368022  0.75476555  0.15417524     0.30200
C546        C  0.44550810  0.72933363  0.14584018    -0.36100
C547        C  0.42670212  0.72873290  0.12514928     0.16200
C548        C  0.41602058  0.75155779  0.11393287     0.22000
C549        C  0.42411659  0.77700860  0.12233793    -0.34200
C550        C  0.44348928  0.77760331  0.14252566     0.16100
O551        O  0.47270020  0.75993869  0.17160468    -0.26300
C552        C  0.47494830  0.78637945  0.17080551     0.05900
C553        C  0.45726525  0.79844820  0.15314264    -0.31100
O554        O  0.39938568  0.74627662  0.09422577    -0.23000
C555        C  0.39982713  0.71977227  0.09257438    -0.03000
C556        C  0.41644398  0.70779476  0.11127504    -0.17400
H557        H  0.45405341  0.71128751  0.15412017     0.20600
H558        H  0.41664490  0.79504140  0.11304858     0.19000
H559        H  0.45554224  0.81942061  0.14816540     0.18900
H560        H  0.42055970  0.68674500  0.11399958     0.14800
C561        C  0.44563999  0.89237801  0.26262034     0.30200
C562        C  0.42474697  0.91089710  0.26094667    -0.36100
C563        C  0.41487219  0.92038591  0.28532683     0.16200
C564        C  0.42509451  0.91251990  0.30970685     0.22000
C565        C  0.44545050  0.89336393  0.31140443    -0.34200
C566        C  0.45510493  0.88359940  0.28699744     0.16100
O567        O  0.45910164  0.88238172  0.24234900    -0.26300
C568        C  0.47708979  0.86663549  0.25387853     0.05900
C569        C  0.47540404  0.86636194  0.28159200    -0.31100
O570        O  0.41456983  0.92585889  0.32982052    -0.23000
C571        C  0.39706671  0.94204809  0.31812576    -0.03000
C572        C  0.39620222  0.93935100  0.29053551    -0.17400
H573        H  0.41730319  0.91805939  0.24195686     0.20600
H574        H  0.45377260  0.88716594  0.33036656     0.19000
H575        H  0.48812823  0.85599432  0.29565752     0.18900
H576        H  0.38459588  0.95079496  0.27633326     0.14800
C577        C  0.75984789  0.08901201  0.42638312     0.30200
C578        C  0.75808150  0.10700123  0.44772654    -0.36100
C579        C  0.78241985  0.11661161  0.45754563     0.16200
C580        C  0.80681484  0.10865940  0.44740822     0.22000
C581        C  0.80856237  0.09111635  0.42569868    -0.34200
C582        C  0.78420486  0.08190184  0.41555245     0.16100
O583        O  0.73975995  0.07627917  0.41520848    -0.26300
C584        C  0.75139708  0.06125839  0.39668805     0.05900
C585        C  0.77897294  0.06408526  0.39577895    -0.31100
O586        O  0.82704849  0.11904132  0.46056241    -0.23000
C587        C  0.81541097  0.13420624  0.47895931    -0.03000
C588        C  0.78771263  0.13362445  0.47800992    -0.17400
H589        H  0.73911221  0.11270330  0.45638033     0.20600
H590        H  0.82756462  0.08474937  0.41759896     0.19000
H591        H  0.79313902  0.05337542  0.38345054     0.18900
H592        H  0.77363548  0.14367610  0.49097700     0.14800
C593        C  0.62207861  0.89590514  0.25856157     0.30200
C594        C  0.64115253  0.91631155  0.25646475    -0.36100
C595        C  0.65247096  0.92497700  0.28054094     0.16200
C596        C  0.64518579  0.91459929  0.30504980     0.22000
C597        C  0.62667738  0.89366177  0.30707675    -0.34200
C598        C  0.61563100  0.88473987  0.28295495     0.16100
O599        O  0.60775665  0.88599034  0.23883752    -0.26300
C600        C  0.59230302  0.86790795  0.25069178     0.05900
C601        C  0.59644500  0.86610826  0.27808814    -0.31100
O602        O  0.65635800  0.92742697  0.32513215    -0.23000
C603        C  0.67137475  0.94586280  0.31326782    -0.03000
C604        C  0.66998551  0.94512966  0.28556631    -0.17400
H605        H  0.64621859  0.92534888  0.23748093     0.20600
H606        H  0.62067868  0.88548494  0.32617838     0.19000
H607        H  0.58596614  0.85375707  0.29242736     0.18900
H608        H  0.67928108  0.95852667  0.27134935     0.14800
C609        C  0.61168407  0.12070337  0.27979509     0.30200
C610        C  0.62129632  0.11357807  0.30514479    -0.36100
C611        C  0.64018754  0.09289664  0.30569363     0.16200
C612        C  0.64949824  0.08059832  0.28282598     0.22000
C613        C  0.63983765  0.08766371  0.25754449    -0.34200
C614        C  0.62050862  0.10784257  0.25705371     0.16100
O615        O  0.59286651  0.13840015  0.27467201    -0.26300
C616        C  0.58944675  0.13652627  0.24838385     0.05900
C617        C  0.60605426  0.11783607  0.23639353    -0.31100
O618        O  0.66655209  0.06124618  0.28795921    -0.23000
C619        C  0.66786802  0.06083112  0.31446074    -0.03000
C620        C  0.65187033  0.08001455  0.32660879    -0.17400
H621        H  0.61392604  0.12288545  0.32320820     0.20600
H622        H  0.64632926  0.07754167  0.23958260     0.19000
H623        H  0.60692706  0.11209466  0.21556715     0.18900
H624        H  0.64896740  0.08358320  0.34773513     0.14800
C625        C  0.28766170  0.11885185  0.61336811     0.30200
C626        C  0.31306617  0.10935816  0.62054884    -0.36100
C627        C  0.31358372  0.08915806  0.64002093     0.16200
C628        C  0.29073789  0.07951987  0.65211920     0.22000
C629        C  0.26541509  0.08905248  0.64501488    -0.34200
C630        C  0.26484749  0.10867492  0.62506706     0.16100
O631        O  0.28229902  0.13617859  0.59420542    -0.26300
C632        C  0.25572415  0.13676218  0.59344771     0.05900
C633        C  0.24384086  0.12004582  0.61216801    -0.31100
O634        O  0.29564499  0.05984912  0.66890735    -0.23000
C635        C  0.32192180  0.05651101  0.66727629    -0.03000
C636        C  0.33418718  0.07420582  0.64965991    -0.17400
H637        H  0.33105496  0.11642462  0.61084933     0.20600
H638        H  0.24733254  0.08092760  0.65365480     0.19000
H639        H  0.22277783  0.11624954  0.61524041     0.18900
H640        H  0.35510199  0.07542186  0.64431812     0.14800
C641        C  0.28510121  0.88284772  0.60671068     0.30200
C642        C  0.31076811  0.88978465  0.61568213    -0.36100
C643        C  0.31192995  0.91022041  0.63485850     0.16200
C644        C  0.28935287  0.92248102  0.64488897     0.22000
C645        C  0.26382554  0.91577680  0.63572498    -0.34200
C646        C  0.26271302  0.89582315  0.61622476     0.16100
O647        O  0.27921236  0.86477123  0.58844415    -0.26300
C648        C  0.25279139  0.86659433  0.58609151     0.05900
C649        C  0.24151436  0.88563854  0.60277268    -0.31100
O650        O  0.29491755  0.94116271  0.66249650    -0.23000
C651        C  0.32141198  0.94124121  0.66351310    -0.03000
C652        C  0.33316731  0.92249836  0.64669183    -0.17400
H653        H  0.32855865  0.88026589  0.60793967     0.20600
H654        H  0.24608261  0.92576173  0.64297846     0.19000
H655        H  0.22069927  0.89116052  0.60465205     0.18900
H656        H  0.35420833  0.91869657  0.64352481     0.14800
C657        C  0.25871464  0.88943630  0.44424228     0.30200
C658        C  0.25689784  0.91027664  0.42565255    -0.36100
C659        C  0.28119252  0.92103684  0.41692469     0.16200
C660        C  0.30562312  0.91221404  0.42616308     0.22000
C661        C  0.30746635  0.89091660  0.44431776    -0.34200
C662        C  0.28313278  0.87984071  0.45273026     0.16100
O663        O  0.23852447  0.87806283  0.45667504    -0.26300
C664        C  0.25009448  0.86058251  0.47294586     0.05900
C665        C  0.27781066  0.86055523  0.47118498    -0.31100
O666        O  0.32570499  0.92620790  0.41640203    -0.23000
C667        C  0.31393937  0.94383367  0.40036373    -0.03000
C668        C  0.28630736  0.94149856  0.39980730    -0.17400
H669        H  0.23785645  0.91802860  0.41899625     0.20600
H670        H  0.32647811  0.88390085  0.45182023     0.19000
H671        H  0.29192927  0.84943687  0.48319644     0.18900
H672        H  0.27208481  0.95357927  0.38889900     0.14800
C673        C  0.13547934  0.77043868  0.45063446     0.30200
C674        C  0.11579708  0.77186198  0.43076713    -0.36100
C675        C  0.10674447  0.74733882  0.42076363     0.16200
C676        C  0.11600795  0.72308301  0.43006694     0.22000
C677        C  0.13599945  0.72166908  0.44961488    -0.34200
C678        C  0.14541945  0.74619983  0.45925096     0.16100
O679        O  0.14636712  0.79084184  0.46319076    -0.26300
C680        C  0.16383037  0.77952925  0.47969370     0.05900
C681        C  0.16421044  0.75181844  0.47805655    -0.31100
O682        O  0.10372752  0.70264815  0.41893715    -0.23000
C683        C  0.08675604  0.71397665  0.40195434    -0.03000
C684        C  0.08783690  0.74171572  0.40208482    -0.17400
H685        H  0.10794731  0.79074508  0.42376310     0.20600
H686        H  0.14350646  0.70277623  0.45696022     0.19000
H687        H  0.17608952  0.73788912  0.48955109     0.18900
H688        H  0.07574880  0.75563817  0.39080053     0.14800
C689        C  0.14164912  0.58512226  0.26103077     0.30200
C690        C  0.12233081  0.60531726  0.25932847    -0.36100
C691        C  0.11253165  0.61492047  0.28372932     0.16200
C692        C  0.12080346  0.60494763  0.30808036     0.22000
C693        C  0.14052220  0.58518767  0.30979018    -0.34200
C694        C  0.15065623  0.57594219  0.28543031     0.16100
O695        O  0.15255560  0.57230860  0.24080073    -0.26300
C696        C  0.16910364  0.55512294  0.25245214     0.05900
C697        C  0.16890323  0.55657245  0.28015057    -0.31100
O698        O  0.10748481  0.61525629  0.32826754    -0.23000
C699        C  0.09085318  0.63242899  0.31674512    -0.03000
C700        C  0.09320381  0.63325505  0.28909102    -0.17400
H701        H  0.11504331  0.61261334  0.24032986     0.20600
H702        H  0.14707483  0.57716671  0.32876604     0.19000
H703        H  0.17975618  0.54432894  0.29428191     0.18900
H704        H  0.08139723  0.64461890  0.27499316     0.14800
C705        C  0.95695249  0.61208310  0.28343093     0.30200
C706        C  0.94900557  0.60426279  0.25772994    -0.36100
C707        C  0.92839153  0.58533027  0.25659023     0.16200
C708        C  0.91604556  0.57529146  0.27914793     0.22000
C709        C  0.92409293  0.58299421  0.30478870    -0.34200
C710        C  0.94510736  0.60138506  0.30594499     0.16100
O711        O  0.97642203  0.62880611  0.28929177    -0.26300
C712        C  0.97723496  0.62839714  0.31584910     0.05900
C713        C  0.95835636  0.61161016  0.32728673    -0.31100
O714        O  0.89800911  0.55700209  0.27355088    -0.23000
C715        C  0.89907282  0.55501072  0.24712106    -0.03000
C716        C  0.91758355  0.57213625  0.23544094    -0.17400
H717        H  0.95870856  0.61181891  0.23993790     0.20600
H718        H  0.91514753  0.57459800  0.32260068     0.19000
H719        H  0.95493962  0.60757859  0.34825814     0.18900
H720        H  0.92287777  0.57391668  0.21454761     0.14800
C721        C  0.94976438  0.39180602  0.30549854     0.30200
C722        C  0.92972711  0.41128102  0.30728519    -0.36100
C723        C  0.91922516  0.42031017  0.28296976     0.16200
C724        C  0.92819968  0.41116912  0.25855163     0.22000
C725        C  0.94785226  0.39126990  0.25677706    -0.34200
C726        C  0.95804452  0.38191213  0.28112904     0.16100
O727        O  0.96304167  0.38137637  0.32566484    -0.26300
C728        C  0.97971343  0.36423112  0.31413372     0.05900
C729        C  0.97743313  0.36357348  0.28645346    -0.31100
O730        O  0.91698906  0.42377537  0.23834728    -0.23000
C731        C  0.90027354  0.44082877  0.24998192    -0.03000
C732        C  0.90063293  0.43943595  0.27770749    -0.17400
H733        H  0.92312596  0.41917846  0.32629380     0.20600
H734        H  0.95504465  0.38396959  0.23774401     0.19000
H735        H  0.98899953  0.35197883  0.27234482     0.18900
H736        H  0.88975197  0.45163431  0.29185312     0.14800
C737        C  0.78270162  0.38119635  0.10786309     0.30200
C738        C  0.80814476  0.38908268  0.11646530    -0.36100
C739        C  0.80876276  0.40787997  0.13718655     0.06600
C740        C  0.78594964  0.41785516  0.14904799     0.22000
C741        C  0.76050000  0.41006582  0.14034658    -0.34200
C742        C  0.75987708  0.39171141  0.11921909     0.16100
O743        O  0.77744040  0.36454684  0.08816154    -0.26300
C744        C  0.75093043  0.36474264  0.08665392     0.05900
C745        C  0.73893290  0.38136198  0.10536511    -0.31100
O746        O  0.79119902  0.43615230  0.16724313    -0.23000
C747        C  0.81767604  0.43812291  0.16674115    -0.03000
C748        C  0.82966285  0.42101102  0.14847039    -0.17400
H749        H  0.82617870  0.38165221  0.10715097     0.20600
H750        H  0.74246233  0.41835946  0.14888935     0.19000
H751        H  0.71786513  0.38523919  0.10825857     0.18900
H752        H  0.85064354  0.41926163  0.14355376     0.14800
C753        C  0.61815242  0.22714864  0.13855582     0.30200
C754        C  0.63672200  0.22481459  0.11768746    -0.36100
C755        C  0.64880918  0.24863167  0.10924360     0.16200
C756        C  0.64268957  0.27315460  0.12024979     0.22000
C757        C  0.62462116  0.27539253  0.14162145    -0.34200
C758        C  0.61279499  0.25148653  0.15033554     0.16100
O759        O  0.60337511  0.20770541  0.14839888    -0.26300
C760        C  0.58861136  0.21959326  0.16702651     0.05900
C761        C  0.59376057  0.24681567  0.16930970    -0.31100
O762        O  0.65457435  0.29306663  0.10768062    -0.23000
C763        C  0.66892459  0.28105484  0.08879516    -0.03000
C764        C  0.66629377  0.25341935  0.08894465    -0.17400
H765        H  0.64091310  0.20584655  0.10821254     0.20600
H766        H  0.61955632  0.29451611  0.15032049     0.19000
H767        H  0.58405121  0.26119619  0.18219607     0.18900
H768        H  0.67483990  0.23914221  0.07514566     0.14800
C769        C  0.42294678  0.08739110  0.76020786     0.30200
C770        C  0.44115823  0.10850399  0.75816664    -0.36100
C771        C  0.44993907  0.11934430  0.78235649     0.16200
C772        C  0.44162511  0.10984201  0.80690175     0.22000
C773        C  0.42263244  0.08934151  0.80893271    -0.34200
C774        C  0.41365376  0.07864639  0.78468530     0.16100
O775        O  0.41393974  0.07291581  0.74024386    -0.26300
C776        C  0.39832073  0.05499322  0.75202010     0.05900
C777        C  0.39710623  0.05768067  0.77961970    -0.31100
O778        O  0.45496844  0.12060934  0.82684299    -0.23000
C779        C  0.47160933  0.13751540  0.81486646    -0.03000
C780        C  0.46914295  0.13786022  0.78725836    -0.17400
H781        H  0.44884268  0.11520782  0.73909328     0.20600
H782        H  0.41625521  0.08146321  0.82803812     0.19000
H783        H  0.38663233  0.04520733  0.79385699     0.18900
H784        H  0.48120254  0.14862023  0.77287628     0.14800
C785        C  0.63896092  0.27073938  0.94562542     0.30200
C786        C  0.61845640  0.27259681  0.92671862    -0.36100
C787        C  0.61005148  0.24846476  0.91542001     0.16200
C788        C  0.62062282  0.22404301  0.92265162     0.22000
C789        C  0.64156151  0.22222514  0.94120649    -0.34200
C790        C  0.65035778  0.24648833  0.95214599     0.16100
O791        O  0.64908304  0.29071761  0.95937757    -0.26300
C792        C  0.66754529  0.27924716  0.97458879     0.05900
C793        C  0.66939056  0.25176997  0.97086696    -0.31100
O794        O  0.60827960  0.20390260  0.91098016    -0.23000
C795        C  0.59006316  0.21573891  0.89568216    -0.03000
C796        C  0.59035701  0.24339535  0.89749314    -0.17400
H797        H  0.60938987  0.29151104  0.92149830     0.20600
H798        H  0.65005004  0.20322791  0.94705543     0.19000
H799        H  0.68216716  0.23770262  0.98116522     0.18900
H800        H  0.57705314  0.25756001  0.88802253     0.14800
C801        C  0.44704107  0.22682837  0.92579604     0.30200
C802        C  0.42713860  0.22465696  0.94536233    -0.36100
C803        C  0.41707781  0.24879322  0.95524885     0.16200
C804        C  0.42636023  0.27337734  0.94684472     0.22000
C805        C  0.44587640  0.27555509  0.92685422    -0.34200
C806        C  0.45558953  0.25139994  0.91660660     0.16100
O807        O  0.46001945  0.20685772  0.91469918    -0.26300
C808        C  0.47673047  0.21876323  0.89784326     0.05900
C809        C  0.47477735  0.24645080  0.89798228    -0.31100
O810        O  0.41536660  0.29330247  0.96002998    -0.23000
C811        C  0.39846445  0.28131567  0.97666966    -0.03000
C812        C  0.39852465  0.25365770  0.97449950    -0.17400
H813        H  0.42029489  0.20548957  0.95267413     0.20600
H814        H  0.45327720  0.29471742  0.92009338     0.19000
H815        H  0.48653083  0.26077437  0.88681742     0.18900
H816        H  0.38734223  0.23927662  0.98616625     0.14800
C817        C  0.91834599  0.74786944  0.45993891     0.30200
C818        C  0.93055176  0.72289706  0.45622699    -0.36100
C819        C  0.94647005  0.72031250  0.43329520     0.16200
C820        C  0.94982992  0.74075951  0.41508421     0.22000
C821        C  0.93773310  0.76573552  0.41886319    -0.34200
C822        C  0.92222254  0.76848320  0.44201587     0.16100
O823        O  0.90347915  0.75504114  0.48047781    -0.26300
C824        C  0.89813837  0.78065837  0.47580487     0.05900
C825        C  0.90935871  0.79014908  0.45226079    -0.31100
O826        O  0.96629518  0.73434257  0.39556650    -0.23000
C827        C  0.97372694  0.70951840  0.40139521    -0.03000
C828        C  0.96202927  0.69973464  0.42465900    -0.17400
H829        H  0.92830679  0.70683398  0.47053244     0.20600
H830        H  0.94081324  0.78211871  0.40508736     0.19000
H831        H  0.90839341  0.81014950  0.44409938     0.18900
H832        H  0.96514621  0.68057197  0.43418119     0.14800
C833        C  0.76267937  0.91784828  0.42352924     0.30200
C834        C  0.76062896  0.89774622  0.44292108    -0.36100
C835        C  0.78479167  0.88723663  0.45228544     0.16200
C836        C  0.80935389  0.89625939  0.44358438     0.22000
C837        C  0.81140899  0.91603222  0.42375578    -0.34200
C838        C  0.78717662  0.92621741  0.41401341     0.16100
O839        O  0.74263944  0.93115659  0.41291337    -0.26300
C840        C  0.75435165  0.94794654  0.39598274     0.05900
C841        C  0.78204955  0.94570862  0.39566650    -0.31100
O842        O  0.82933751  0.88493399  0.45649831    -0.23000
C843        C  0.81737110  0.86808986  0.47327300    -0.03000
C844        C  0.78969393  0.86854152  0.47139981    -0.17400
H845        H  0.74151177  0.89108701  0.45051980     0.20600
H846        H  0.83053902  0.92329986  0.41677414     0.19000
H847        H  0.79628746  0.95744087  0.38437389     0.18900
H848        H  0.77530725  0.85762951  0.48331143     0.14800
C849        C  0.94503653  0.73059037  0.64161619     0.30200
C850        C  0.92483083  0.72858328  0.62236971    -0.36100
C851        C  0.91532722  0.75277257  0.61204549     0.16200
C852        C  0.92535405  0.77726951  0.61977405     0.22000
C853        C  0.94509260  0.77931572  0.63954575    -0.34200
C854        C  0.95429841  0.75510880  0.65019379     0.16100
O855        O  0.95789625  0.71049324  0.65268072    -0.26300
C856        C  0.97524462  0.72227490  0.66894630     0.05900
C857        C  0.97380834  0.75000098  0.66842501    -0.31100
O858        O  0.91513577  0.79715709  0.60588246    -0.23000
C859        C  0.89800571  0.78523279  0.58944730    -0.03000
C860        C  0.89709281  0.75767934  0.59253129    -0.17400
H861        H  0.91752017  0.70946390  0.61542246     0.20600
H862        H  0.95319534  0.79839302  0.64568610     0.19000
H863        H  0.98621330  0.76423420  0.67895438     0.18900
H864        H  0.88568452  0.74331318  0.58109517     0.14800
C865        C  0.14967822  0.75476219  0.61346663     0.30200
C866        C  0.14060627  0.72948599  0.62124067    -0.36100
C867        C  0.12062196  0.72917328  0.64075790     0.16200
C868        C  0.11063074  0.75210604  0.65236547     0.22000
C869        C  0.11958921  0.77747517  0.64444071    -0.34200
C870        C  0.13919846  0.77780964  0.62441626     0.16100
O871        O  0.16711996  0.75962075  0.59442419    -0.26300
C872        C  0.16757121  0.78608693  0.59283829     0.05900
C873        C  0.15058893  0.79854572  0.61095223    -0.31100
O874        O  0.09158393  0.74702248  0.66984516    -0.23000
C875        C  0.08921865  0.72056415  0.66905755    -0.03000
C876        C  0.10666174  0.70842678  0.65125791    -0.17400
H877        H  0.14804630  0.71135959  0.61211891     0.20600
H878        H  0.11130411  0.79563879  0.65271743     0.19000
H879        H  0.14671456  0.81968291  0.61330399     0.18900
H880        H  0.10849757  0.68741164  0.64652398     0.14800
C881        C  0.13423564  0.58752622  0.81011341     0.30200
C882        C  0.11340346  0.60620699  0.81119957    -0.36100
C883        C  0.10546696  0.61714363  0.78667090     0.16200
C884        C  0.11679165  0.60975265  0.76263300     0.22000
C885        C  0.13794010  0.59142394  0.76160083    -0.34200
C886        C  0.14625944  0.58091231  0.78619267     0.16100
O887        O  0.14423456  0.57416628  0.83049394    -0.26300
C888        C  0.16321796  0.55916721  0.81952136     0.05900
C889        C  0.16549389  0.56264769  0.79205950    -0.31100
O890        O  0.10525376  0.62139986  0.74200867    -0.23000
C891        C  0.08673314  0.63688374  0.75308025    -0.03000
C892        C  0.08601889  0.63515950  0.78077746    -0.17400
H893        H  0.10387587  0.61163981  0.82982937     0.20600
H894        H  0.14707665  0.58555110  0.74290987     0.19000
H895        H  0.17872426  0.55245195  0.77833644     0.18900
H896        H  0.07246142  0.64500826  0.79443684     0.14800
C897        C  0.78396950  0.92198463  0.65162916     0.30200
C898        C  0.80933721  0.91464865  0.64219893    -0.36100
C899        C  0.80975852  0.89570645  0.62154601     0.16200
C900        C  0.78684842  0.88414907  0.61144791     0.22000
C901        C  0.76151239  0.89141622  0.62091273    -0.34200
C902        C  0.76105893  0.91092077  0.64098681     0.16100
O903        O  0.77879768  0.94090863  0.66923270    -0.26300
C904        C  0.75226236  0.94221396  0.66953044     0.05900
C905        C  0.74017647  0.92403266  0.65238111    -0.31100
O906        O  0.79179629  0.86753899  0.59163337    -0.23000
C907        C  0.81816324  0.86880785  0.58867695    -0.03000
C908        C  0.83042032  0.88601261  0.60671622    -0.17400
H909        H  0.82739976  0.92388335  0.64965695     0.20600
H910        H  0.74338390  0.88323098  0.61245444     0.19000
H911        H  0.71910435  0.92153512  0.64825318     0.18900
H912        H  0.85142136  0.89084511  0.60842588     0.14800
C913        C  0.61758665  0.10631759  0.80475041     0.30200
C914        C  0.63858167  0.08796252  0.80713494    -0.36100
C915        C  0.64903886  0.07818842  0.78310082     0.16200
C916        C  0.63914702  0.08557834  0.75844260     0.22000
C917        C  0.61850824  0.10434135  0.75604137    -0.34200
C918        C  0.60838345  0.11449054  0.78006926     0.16100
O919        O  0.60423527  0.11722302  0.82460397    -0.26300
C920        C  0.58662395  0.13295189  0.81248295     0.05900
C921        C  0.58833672  0.13222717  0.78478989    -0.31100
O922        O  0.65059845  0.07254188  0.73868671    -0.23000
C923        C  0.66837962  0.05700177  0.75082273    -0.03000
C924        C  0.66846546  0.05977215  0.77843691    -0.17400
H925        H  0.64594920  0.08144100  0.82638266     0.20600
H926        H  0.61061028  0.11027044  0.73681304     0.19000
H927        H  0.57602938  0.14256585  0.77033647     0.18900
H928        H  0.68018008  0.04884656  0.79295216     0.14800
C929        C  0.80937436  0.10918311  0.62299015     0.30200
C930        C  0.81102224  0.08861832  0.64196770    -0.36100
C931        C  0.78667020  0.07954970  0.65245226     0.16200
C932        C  0.76231187  0.08971993  0.64451084     0.22000
C933        C  0.76071072  0.11087153  0.62613906    -0.34200
C934        C  0.78510911  0.12017983  0.61590704     0.16100
O935        O  0.82943042  0.11916885  0.60911027    -0.26300
C936        C  0.81794164  0.13715845  0.59329123     0.05900
C937        C  0.79043244  0.13884022  0.59680545    -0.31100
O938        O  0.74200027  0.07654965  0.65499479    -0.23000
C939        C  0.75354000  0.05806225  0.67023146    -0.03000
C940        C  0.78127284  0.05916310  0.66964862    -0.17400
H941        H  0.82990665  0.07968756  0.64749517     0.20600
H942        H  0.74174137  0.11888198  0.61958662     0.19000
H943        H  0.77630316  0.15092647  0.58578341     0.18900
H944        H  0.79533629  0.04593072  0.67935907     0.14800
C945        C  0.64878081  0.92523339  0.78402670     0.30200
C946        C  0.63978199  0.91798910  0.80963560    -0.36100
C947        C  0.61937166  0.89873367  0.81056590     0.16200
C948        C  0.60895901  0.88702648  0.78788496     0.22000
C949        C  0.61770754  0.89450665  0.76231936    -0.34200
C950        C  0.63772047  0.91408768  0.76137267     0.16100
O951        O  0.66705924  0.94341884  0.77839415    -0.26300
C952        C  0.66740725  0.94415082  0.75179843     0.05900
C953        C  0.64951368  0.92639473  0.74015943    -0.31100
O954        O  0.59030569  0.86922496  0.79333034    -0.23000
C955        C  0.58841831  0.86975211  0.81983380    -0.03000
C956        C  0.60589111  0.88787967  0.83165016    -0.17400
H957        H  0.64785619  0.92699984  0.82754319     0.20600
H958        H  0.60925304  0.88589053  0.74439266     0.19000
H959        H  0.64551155  0.92333957  0.71913540     0.18900
H960        H  0.60843883  0.89218857  0.85268011     0.14800
C961        C  0.45472749  0.87998050  0.78850958     0.30200
C962        C  0.44654621  0.88734691  0.76280289    -0.36100
C963        C  0.42785974  0.90807267  0.76142942     0.16200
C964        C  0.41743724  0.92034225  0.78382388     0.22000
C965        C  0.42580398  0.91312257  0.80957831    -0.34200
C966        C  0.44493083  0.89272516  0.81092435     0.16100
O967        O  0.47304647  0.86205525  0.79427230    -0.26300
C968        C  0.47525515  0.86353434  0.82066720     0.05900
C969        C  0.45831334  0.88229309  0.83216149    -0.31100
O970        O  0.40058692  0.93963647  0.77777419    -0.23000
C971        C  0.40058067  0.93989695  0.75120337    -0.03000
C972        C  0.41724413  0.92081403  0.73994688    -0.17400
H973        H  0.45473642  0.87806187  0.74508362     0.20600
H974        H  0.41844370  0.92316284  0.82724887     0.19000
H975        H  0.45664388  0.88786492  0.85298482     0.18900
H976        H  0.42121645  0.91717836  0.71900556     0.14800
C977        C  0.42720508  0.72155410  0.94772159     0.30200
C978        C  0.44937895  0.71959383  0.93053823    -0.36100
C979        C  0.45777615  0.74351413  0.91840034     0.16200
C980        C  0.44537769  0.76766737  0.92319279     0.22000
C981        C  0.42279294  0.76945301  0.93967163    -0.34200
C982        C  0.41425226  0.74557513  0.95154310     0.16100
O983        O  0.41736514  0.70233940  0.96293022    -0.26300
C984        C  0.39763606  0.71417007  0.97633923     0.05900
C985        C  0.39463100  0.74099274  0.96982856    -0.31100
O986        O  0.45786146  0.78790277  0.91186793    -0.23000
C987        C  0.47824941  0.77662419  0.89914847    -0.03000
C988        C  0.47912295  0.74898605  0.90225494    -0.17400
H989        H  0.45990916  0.70095255  0.92759807     0.20600
H990        H  0.41313757  0.78835350  0.94374499     0.19000
H991        H  0.38104429  0.75537640  0.97852799     0.18900
H992        H  0.49406776  0.73522504  0.89487964     0.14800
C993        C  0.61405544  0.75058459  0.91554434     0.30200
C994        C  0.62155762  0.72513984  0.92443789    -0.36100
C995        C  0.64139367  0.72450060  0.94412728     0.16200
C996        C  0.65351818  0.74727431  0.95390156     0.22000
C997        C  0.64596607  0.77271076  0.94506041    -0.34200
C998        C  0.62565552  0.77338612  0.92587576     0.16100
O999        O  0.59462049  0.75593361  0.89867334    -0.26300
C1000       C  0.59355526  0.78244914  0.89855674     0.05900
C1001       C  0.61231537  0.79440845  0.91510037    -0.31100
O1002       O  0.67082487  0.74208992  0.97299404    -0.23000
C1003       C  0.66945433  0.71573123  0.97570036    -0.03000
C1004       C  0.65148098  0.70369582  0.95832702    -0.17400
H1005       H  0.61189215  0.70718433  0.91726025     0.20600
H1006       H  0.65459424  0.79073037  0.95331417     0.19000
H1007       H  0.61511799  0.81545871  0.91916407     0.18900
H1008       H  0.64619617  0.68277767  0.95686869     0.14800
C1009       C  0.78554059  0.57542388  0.14899109     0.30200
C1010       C  0.76014996  0.58456943  0.14158022    -0.36100
C1011       C  0.75960579  0.60497871  0.12241773     0.16200
C1012       C  0.78246307  0.61610068  0.11168803     0.22000
C1013       C  0.80787128  0.60686420  0.11901620    -0.34200
C1014       C  0.80839525  0.58601467  0.13773101     0.16100
O1015       O  0.79066102  0.55575177  0.16573774    -0.26300
C1016       C  0.81709752  0.55345579  0.16485438     0.05900
C1017       C  0.82919896  0.57168621  0.14773000    -0.31100
O1018       O  0.77722086  0.63422928  0.09329099    -0.23000
C1019       C  0.75068720  0.63443032  0.09202984    -0.03000
C1020       C  0.73867922  0.61663472  0.10965311    -0.17400
H1021       H  0.74206675  0.57584253  0.14961009     0.20600
H1022       H  0.82591905  0.61480235  0.11013407     0.19000
H1023       H  0.85023023  0.57390493  0.14323078     0.18900
H1024       H  0.71762458  0.61234511  0.11206326     0.14800
C1025       C  0.61757663  0.77608711  0.13699874     0.30200
C1026       C  0.63611717  0.77726211  0.11596710    -0.36100
C1027       C  0.64733273  0.75279990  0.10809003     0.16200
C1028       C  0.64032863  0.72876795  0.11968875     0.22000
C1029       C  0.62217975  0.72766294  0.14101649    -0.34200
C1030       C  0.61138041  0.75215726  0.14923513     0.16100
O1031       O  0.60406004  0.79635882  0.14708013    -0.26300
C1032       C  0.58937495  0.78528822  0.16630962     0.05900
C1033       C  0.59322862  0.75788168  0.16864022    -0.31100
O1034       O  0.65206212  0.70817416  0.10818240    -0.23000
C1035       C  0.66723491  0.71920077  0.08935075    -0.03000
C1036       C  0.66523383  0.74690442  0.08845049    -0.17400
H1037       H  0.64123887  0.79589281  0.10625413     0.20600
H1038       H  0.61662640  0.70896405  0.15035398     0.19000
H1039       H  0.58342457  0.74409269  0.18212064     0.18900
H1040       H  0.67477905  0.76054533  0.07463790     0.14800
C1041       C  0.94420773  0.61151563  0.76023133     0.30200
C1042       C  0.92347243  0.59279180  0.75824354    -0.36100
C1043       C  0.91471859  0.58164887  0.78239156     0.16200
C1044       C  0.92594513  0.58812939  0.80673365     0.22000
C1045       C  0.94629378  0.60724293  0.80877320    -0.34200
C1046       C  0.95469626  0.61874715  0.78469369     0.16100
O1047       O  0.95644949  0.62331949  0.74014500    -0.26300
C1048       C  0.97455569  0.63871247  0.75197636     0.05900
C1049       C  0.97431287  0.63684911  0.77965172    -0.31100
O1050       O  0.91593683  0.57400212  0.82653853    -0.23000
C1051       C  0.89775291  0.55863146  0.81480248    -0.03000
C1052       C  0.89596595  0.56260436  0.78738050    -0.17400
H1053       H  0.91513521  0.58693284  0.73918332     0.20600
H1054       H  0.95527882  0.61240971  0.82773938     0.19000
H1055       H  0.98756984  0.64638694  0.79381447     0.18900
H1056       H  0.88348856  0.55218354  0.77313409     0.14800
C1057       C  0.80675910  0.58689982  0.92576773     0.30200
C1058       C  0.80861916  0.60566534  0.94645021    -0.36100
C1059       C  0.78440383  0.61630669  0.95555480     0.16200
C1060       C  0.75995762  0.60875204  0.94528445     0.22000
C1061       C  0.75815309  0.59059700  0.92399177    -0.34200
C1062       C  0.78243432  0.58014795  0.91468247     0.16100
O1063       O  0.82668542  0.57302431  0.91563514    -0.26300
C1064       C  0.81506063  0.55748118  0.89751503     0.05900
C1065       C  0.78758696  0.56120995  0.89583690    -0.31100
O1066       O  0.73977853  0.61941897  0.95846505    -0.23000
C1067       C  0.75154433  0.63433399  0.97705524    -0.03000
C1068       C  0.77924604  0.63340095  0.97601337    -0.17400
H1069       H  0.82756145  0.61094054  0.95541962     0.20600
H1070       H  0.73911898  0.58436808  0.91586862     0.19000
H1071       H  0.77339169  0.55055771  0.88349813     0.18900
H1072       H  0.79343122  0.64289630  0.98927529     0.14800
C1073       C  0.78552919  0.41960080  0.91252925     0.30200
C1074       C  0.76014749  0.40980536  0.91932211    -0.36100
C1075       C  0.75938152  0.39092425  0.94003381     0.16200
C1076       C  0.78208807  0.38179345  0.95272717     0.22000
C1077       C  0.80743834  0.39166829  0.94601661    -0.34200
C1078       C  0.80813366  0.41099487  0.92575460     0.16100
O1079       O  0.79075101  0.43840333  0.89479977    -0.26300
C1080       C  0.81697286  0.44209820  0.89697741     0.05900
C1081       C  0.82882861  0.42563852  0.91594253    -0.31100
O1082       O  0.77668900  0.36477680  0.97210625    -0.23000
C1083       C  0.75017053  0.36328539  0.97209693    -0.03000
C1084       C  0.73830802  0.37916435  0.95263304    -0.17400
H1085       H  0.74218681  0.41703306  0.90972496     0.20600
H1086       H  0.82527617  0.38534007  0.95644443     0.19000
H1087       H  0.84957949  0.42496689  0.92195481     0.18900
H1088       H  0.71723781  0.38205310  0.94878366     0.14800
C1089       C  0.91800304  0.42652274  0.78103286     0.30200
C1090       C  0.92695222  0.41963020  0.75537108    -0.36100
C1091       C  0.94684091  0.39994537  0.75422795     0.16200
C1092       C  0.95677558  0.38750372  0.77674869     0.22000
C1093       C  0.94802787  0.39456774  0.80236887    -0.34200
C1094       C  0.92859279  0.41461963  0.80354168     0.16100
O1095       O  0.90030062  0.44511447  0.78688739    -0.26300
C1096       C  0.89989426  0.44531145  0.81346194     0.05900
C1097       C  0.91715546  0.42686547  0.82490143    -0.31100
O1098       O  0.97550709  0.36993762  0.77115312    -0.23000
C1099       C  0.97790033  0.37139886  0.74475771    -0.03000
C1100       C  0.96065590  0.38978380  0.73310391    -0.17400
H1101       H  0.91937801  0.42934978  0.73761030     0.20600
H1102       H  0.95624735  0.38548015  0.82017740     0.19000
H1103       H  0.92094371  0.42329541  0.84588779     0.18900
H1104       H  0.95881838  0.39504833  0.71221203     0.14800
loop_ 
_geom_bond_atom_site_label_1 
_geom_bond_atom_site_label_2 
_geom_bond_distance 
_geom_bond_site_symmetry_2 
_ccdc_geom_bond_type 
O1           Cu9   2.003       .  S
O1           C11   1.277       .  A
O2           Cu9   2.001       .  S
O2           C12   1.276       .  A
O3           Cu9   2.007       .  S
O3           C13   1.277       .  A
O4           Cu9   2.005       .  S
O4           C14   1.277       .  A
O5          Cu10   2.011       .  S
O5           C14   1.277       .  A
O6          Cu10   2.012       .  S
O6           C13   1.278       .  A
O7          Cu10   2.009       .  S
O7           C12   1.278       .  A
O8          Cu10   2.015       .  S
O8           C11   1.278       .  A
Cu9         Cu10   2.377       .  S
C11        C1080   1.467       .  S
C12        C1051   1.463       .  S
C13        C1064   1.467       .  S
C14        C1096   1.464       .  S
O15         Cu23   2.000       .  S
O15          C25   1.277       .  A
O16         Cu23   1.995       .  S
O16          C26   1.276   1_554  A
O17         Cu23   2.015       .  S
O17          C27   1.278   1_554  A
O18         Cu23   2.016       .  S
O18          C28   1.278       .  A
O19         Cu24   2.011       .  S
O19          C28   1.277       .  A
O20         Cu24   2.007       .  S
O20          C27   1.277   1_554  A
O21         Cu24   2.007       .  S
O21          C26   1.277   1_554  A
O22         Cu24   2.016       .  S
O22          C25   1.278       .  A
Cu23        Cu24   2.378       .  S
C25        C1019   1.466       .  S
C26        C1003   1.460       .  S
C27        C1067   1.467       .  S
C28        C1035   1.469       .  S
O29         Cu37   2.018       .  S
O29          C39   1.278       .  A
O30         Cu37   2.020       .  S
O30          C40   1.278       .  A
O31         Cu37   2.004       .  S
O31          C41   1.277       .  A
O32         Cu37   2.003       .  S
O32          C42   1.276       .  A
O33         Cu38   2.000       .  S
O33          C42   1.276       .  A
O34         Cu38   2.000       .  S
O34          C41   1.276       .  A
O35         Cu38   2.015       .  S
O35          C40   1.278       .  A
O36         Cu38   2.016       .  S
O36          C39   1.278       .  A
Cu37        Cu38   2.377       .  S
C39         C955   1.472       .  S
C40         C987   1.470       .  S
C41         C968   1.462       .  S
C42        C1000   1.459       .  S
O43         Cu51   2.003   1_565  S
O43          C53   1.277       .  A
O44         Cu51   1.997       .  S
O44          C54   1.275       .  A
O45         Cu51   2.016       .  S
O45          C55   1.278       .  A
O46         Cu51   2.013   1_565  S
O46          C56   1.278       .  A
O47         Cu52   2.016   1_565  S
O47          C56   1.278       .  A
O48         Cu52   2.015       .  S
O48          C55   1.278       .  A
O49         Cu52   2.013       .  S
O49          C54   1.278       .  A
O50         Cu52   2.018   1_565  S
O50          C53   1.278       .  A
Cu51        Cu52   2.377       .  S
C53         C904   1.468       .  S
C54         C923   1.463       .  S
C55         C939   1.470       .  S
C56         C952   1.471       .  S
O57         Cu65   1.998       .  S
O57          C67   1.277       .  A
O58         Cu65   1.999       .  S
O58          C68   1.276   1_455  A
O59         Cu65   2.006       .  S
O59          C69   1.277   1_455  A
O60         Cu65   2.010       .  S
O60          C70   1.277       .  A
O61         Cu66   2.007       .  S
O61          C70   1.277       .  A
O62         Cu66   2.008       .  S
O62          C69   1.277   1_455  A
O63         Cu66   2.007       .  S
O63          C68   1.277   1_455  A
O64         Cu66   2.009       .  S
O64          C67   1.277       .  A
Cu65        Cu66   2.379       .  S
C67         C875   1.462       .  S
C68        C1048   1.460       .  S
C69         C856   1.464       .  S
C70         C891   1.465       .  S
O71         Cu79   2.016       .  S
O71          C81   1.279       .  A
O72         Cu79   2.017       .  S
O72          C82   1.278       .  A
O73         Cu79   2.007       .  S
O73          C83   1.276       .  A
O74         Cu79   2.003       .  S
O74          C84   1.276       .  A
O75         Cu80   2.010       .  S
O75          C84   1.278       .  A
O76         Cu80   2.017       .  S
O76          C83   1.279       .  A
O77         Cu80   2.010       .  S
O77          C82   1.276       .  A
O78         Cu80   2.007       .  S
O78          C81   1.276       .  A
Cu79        Cu80   2.377       .  S
C81         C907   1.468       .  S
C82         C824   1.466       .  S
C83         C843   1.468       .  S
C84         C859   1.464       .  S
O85         Cu93   2.000       .  S
O85          C95   1.276       .  A
O86         Cu93   1.999       .  S
O86          C96   1.276       .  A
O87         Cu93   2.003       .  S
O87          C97   1.276       .  A
O88         Cu93   2.005       .  S
O88          C98   1.276       .  A
O89         Cu94   2.004       .  S
O89          C98   1.277       .  A
O90         Cu94   2.002       .  S
O90          C97   1.277       .  A
O91         Cu94   2.008       .  S
O91          C96   1.277       .  A
O92         Cu94   2.011       .  S
O92          C95   1.278       .  A
Cu93        Cu94   2.379       .  S
C95         C920   1.462       .  S
C96         C808   1.462       .  S
C97         C779   1.460       .  S
C98         C795   1.462       .  S
O99        Cu107   2.011       .  S
O99         C109   1.278   1_554  A
O100       Cu107   2.010       .  S
O100        C110   1.277       .  A
O101       Cu107   2.004       .  S
O101        C111   1.277       .  A
O102       Cu107   2.003       .  S
O102        C112   1.277   1_554  A
O103       Cu108   2.012       .  S
O103        C112   1.278   1_554  A
O104       Cu108   2.012       .  S
O104        C111   1.277       .  A
O105       Cu108   2.016       .  S
O105        C110   1.278       .  A
O106       Cu108   2.014       .  S
O106        C109   1.278   1_554  A
Cu107      Cu108   2.377       .  S
C109       C1083   1.468       .  S
C110        C763   1.468       .  S
C111        C744   1.465       .  S
C112        C792   1.465       .  S
O113       Cu121   2.013       .  S
O113        C123   1.278       .  A
O114       Cu121   2.009       .  S
O114        C124   1.277       .  A
O115       Cu121   2.012       .  S
O115        C125   1.277       .  A
O116       Cu121   2.013       .  S
O116        C126   1.278       .  A
O117       Cu122   2.005       .  S
O117        C126   1.276       .  A
O118       Cu122   2.005       .  S
O118        C125   1.277       .  A
O119       Cu122   1.998       .  S
O119        C124   1.276       .  A
O120       Cu122   1.998       .  S
O120        C123   1.276       .  A
Cu121      Cu122   2.378       .  S
C123        C747   1.464       .  S
C124        C715   1.462       .  S
C125       C1016   1.466       .  S
C126        C731   1.466       .  S
O127       Cu135   2.002       .  S
O127        C137   1.276       .  A
O128       Cu135   2.006       .  S
O128        C138   1.277   1_455  A
O129       Cu135   2.006       .  S
O129        C139   1.278   1_455  A
O130       Cu135   2.003       .  S
O130        C140   1.276       .  A
O131       Cu136   2.008       .  S
O131        C140   1.277       .  A
O132       Cu136   2.003       .  S
O132        C139   1.276   1_455  A
O133       Cu136   2.013       .  S
O133        C138   1.278   1_455  A
O134       Cu136   2.010       .  S
O134        C137   1.278       .  A
Cu135      Cu136   2.378       .  S
C137        C699   1.463       .  S
C138        C827   1.469       .  S
C139        C712   1.462       .  S
C140        C683   1.463       .  S
O141       Cu149   2.012       .  S
O141        C151   1.278       .  A
O142       Cu149   2.012       .  S
O142        C152   1.277       .  A
O143       Cu149   2.005       .  S
O143        C153   1.277       .  A
O144       Cu149   2.008       .  S
O144        C154   1.277       .  A
O145       Cu150   2.000       .  S
O145        C154   1.276       .  A
O146       Cu150   2.003       .  S
O146        C153   1.276       .  A
O147       Cu150   2.000       .  S
O147        C152   1.277       .  A
O148       Cu150   2.004       .  S
O148        C151   1.276       .  A
Cu149      Cu150   2.378       .  S
C151        C680   1.465       .  S
C152        C648   1.465       .  S
C153        C872   1.461       .  S
C154        C664   1.463       .  S
O155       Cu163   2.009   1_545  S
O155        C165   1.278       .  A
O156       Cu163   2.005       .  S
O156        C166   1.277       .  A
O157       Cu163   2.008       .  S
O157        C167   1.277       .  A
O158       Cu163   2.001   1_545  S
O158        C168   1.277       .  A
O159       Cu164   2.000   1_545  S
O159        C168   1.276       .  A
O160       Cu164   2.007       .  S
O160        C167   1.277       .  A
O161       Cu164   2.009       .  S
O161        C166   1.277       .  A
O162       Cu164   2.010   1_545  S
O162        C165   1.277       .  A
Cu163      Cu164   2.378       .  S
C165        C635   1.468       .  S
C166        C971   1.463       .  S
C167        C651   1.464       .  S
C168        C776   1.459       .  S
O169       Cu177   2.006   1_565  S
O169        C179   1.277       .  A
O170       Cu177   1.999       .  S
O170        C180   1.276       .  A
O171       Cu177   2.006       .  S
O171        C181   1.277       .  A
O172       Cu177   2.004   1_565  S
O172        C182   1.276       .  A
O173       Cu178   2.017   1_565  S
O173        C182   1.278       .  A
O174       Cu178   2.013       .  S
O174        C181   1.278       .  A
O175       Cu178   2.001       .  S
O175        C180   1.277       .  A
O176       Cu178   2.005   1_565  S
O176        C179   1.277       .  A
Cu177      Cu178   2.378       .  S
C179        C603   1.463       .  S
C180        C584   1.459       .  S
C181        C619   1.465       .  S
C182        C840   1.467       .  S
O183       Cu191   2.010       .  S
O183        C193   1.278       .  A
O184       Cu191   2.007       .  S
O184        C194   1.277       .  A
O185       Cu191   2.010       .  S
O185        C195   1.277       .  A
O186       Cu191   2.010       .  S
O186        C196   1.278       .  A
O187       Cu192   2.006       .  S
O187        C196   1.277       .  A
O188       Cu192   2.000       .  S
O188        C195   1.277       .  A
O189       Cu192   2.009       .  S
O189        C194   1.277       .  A
O190       Cu192   2.015       .  S
O190        C193   1.278       .  A
Cu191      Cu192   2.377       .  S
C193       C1032   1.470       .  S
C194        C568   1.464       .  S
C195        C552   1.463       .  S
C196        C600   1.466       .  S
O197       Cu205   2.012       .  S
O197        C207   1.277       .  A
O198       Cu205   2.009       .  S
O198        C208   1.278       .  A
O199       Cu205   2.004       .  S
O199        C209   1.277       .  A
O200       Cu205   2.008       .  S
O200        C210   1.277       .  A
O201       Cu206   2.002       .  S
O201        C210   1.277       .  A
O202       Cu206   2.006       .  S
O202        C209   1.277       .  A
O203       Cu206   2.010       .  S
O203        C208   1.277       .  A
O204       Cu206   2.009       .  S
O204        C207   1.278       .  A
Cu205      Cu206   2.377       .  S
C207        C539   1.466       .  S
C208        C888   1.467       .  S
C209        C520   1.464       .  S
C210        C504   1.464       .  S
O211       Cu219   2.004       .  S
O211        C221   1.277       .  A
O212       Cu219   2.007       .  S
O212        C222   1.277       .  A
O213       Cu219   2.010       .  S
O213        C223   1.277   1_554  A
O214       Cu219   2.005       .  S
O214        C224   1.276       .  A
O215       Cu220   2.018       .  S
O215        C224   1.279       .  A
O216       Cu220   2.023       .  S
O216        C223   1.280   1_554  A
O217       Cu220   2.004       .  S
O217        C222   1.276       .  A
O218       Cu220   2.006       .  S
O218        C221   1.276       .  A
Cu219      Cu220   2.377       .  S
C221        C555   1.463       .  S
C222        C523   1.462   1_554  S
C223        C984   1.474       .  S
C224        C491   1.468       .  S
O225       Cu233   2.005       .  S
O225        C235   1.277       .  A
O226       Cu233   2.001       .  S
O226        C236   1.276       .  A
O227       Cu233   2.005       .  S
O227        C237   1.277       .  A
O228       Cu233   2.003       .  S
O228        C238   1.277       .  A
O229       Cu234   2.003       .  S
O229        C238   1.276       .  A
O230       Cu234   2.002       .  S
O230        C237   1.276       .  A
O231       Cu234   2.008       .  S
O231        C236   1.277       .  A
O232       Cu234   2.012       .  S
O232        C235   1.278       .  A
Cu233      Cu234   2.379       .  S
C235        C488   1.465       .  S
C236        C475   1.460       .  S
C237        C459   1.460       .  S
C238        C696   1.462       .  S
O239       Cu247   2.003       .  S
O239        C249   1.276       .  A
O240       Cu247   2.007       .  S
O240        C250   1.277   1_554  A
O241       Cu247   2.012       .  S
O241        C251   1.278   1_554  A
O242       Cu247   2.010       .  S
O242        C252   1.278       .  A
O243       Cu248   1.995       .  S
O243        C252   1.275       .  A
O244       Cu248   2.001       .  S
O244        C251   1.276   1_554  A
O245       Cu248   2.007       .  S
O245        C250   1.277   1_554  A
O246       Cu248   2.006       .  S
O246        C249   1.277       .  A
Cu247      Cu248   2.379       .  S
C249        C440   1.460       .  S
C250        C536   1.465       .  S
C251        C811   1.463       .  S
C252        C456   1.462       .  S
O253       Cu261   2.006       .  S
O253        C263   1.277       .  A
O254       Cu261   2.008       .  S
O254        C264   1.277       .  A
O255       Cu261   2.027       .  S
O255        C265   1.280       .  A
O256       Cu261   2.024       .  S
O256        C266   1.279       .  A
O257       Cu262   1.999       .  S
O257        C266   1.276       .  A
O258       Cu262   2.002       .  S
O258        C265   1.276       .  A
O259       Cu262   2.001       .  S
O259        C264   1.277       .  A
O260       Cu262   2.003       .  S
O260        C263   1.276       .  A
Cu261      Cu262   2.377       .  S
C263        C443   1.463       .  S
C264        C616   1.464       .  S
C265        C760   1.471       .  S
C266        C424   1.470       .  S
O267       Cu275   2.004       .  S
O267        C277   1.277   1_455  A
O268       Cu275   2.002       .  S
O268        C278   1.277       .  A
O269       Cu275   2.004       .  S
O269        C279   1.277       .  A
O270       Cu275   2.005       .  S
O270        C280   1.276   1_455  A
O271       Cu276   2.003       .  S
O271        C280   1.277   1_455  A
O272       Cu276   2.004       .  S
O272        C279   1.277       .  A
O273       Cu276   2.004       .  S
O273        C278   1.276       .  A
O274       Cu276   2.008       .  S
O274        C277   1.277   1_455  A
Cu275      Cu276   2.379       .  S
C277       C1099   1.464       .  S
C278        C408   1.461       .  S
C279        C507   1.461       .  S
C280        C392   1.462       .  S
O281       Cu289   1.996       .  S
O281        C291   1.275       .  A
O282       Cu289   1.999       .  S
O282        C292   1.276       .  A
O283       Cu289   2.011       .  S
O283        C293   1.277       .  A
O284       Cu289   2.008       .  S
O284        C294   1.278       .  A
O285       Cu290   2.011       .  S
O285        C294   1.277       .  A
O286       Cu290   2.012       .  S
O286        C293   1.278       .  A
O287       Cu290   2.008       .  S
O287        C292   1.277       .  A
O288       Cu290   2.003       .  S
O288        C291   1.277       .  A
Cu289      Cu290   2.378       .  S
C291        C587   1.458       .  S
C292        C395   1.462       .  S
C293        C936   1.469       .  S
C294        C379   1.466       .  S
O295       Cu303   2.004       .  S
O295        C305   1.277       .  A
O296       Cu303   2.002       .  S
O296        C306   1.277       .  A
O297       Cu303   2.017       .  S
O297        C307   1.279       .  A
O298       Cu303   2.019       .  S
O298        C308   1.278       .  A
O299       Cu304   2.008       .  S
O299        C308   1.278       .  A
O300       Cu304   2.009       .  S
O300        C307   1.277       .  A
O301       Cu304   1.998       .  S
O301        C306   1.276       .  A
O302       Cu304   1.998       .  S
O302        C305   1.276       .  A
Cu303      Cu304   2.378       .  S
C305        C411   1.461       .  S
C306        C363   1.460       .  S
C307        C344   1.469       .  S
C308        C632   1.469       .  S
O309       Cu317   2.000       .  S
O309        C319   1.277       .  A
O310       Cu317   2.002   1_545  S
O310        C320   1.276       .  A
O311       Cu317   2.015   1_545  S
O311        C321   1.278       .  A
O312       Cu317   2.009       .  S
O312        C322   1.278       .  A
O313       Cu318   2.008   1_565  S
O313        C322   1.276       .  A
O314       Cu318   2.006       .  S
O314        C321   1.277       .  A
O315       Cu318   2.001       .  S
O315        C320   1.276       .  A
O316       Cu318   2.006   1_565  S
O316        C319   1.277       .  A
Cu317      Cu318   2.379   1_565  S
C319        C571   1.462       .  S
C320        C360   1.458       .  S
C321        C427   1.466       .  S
C322        C667   1.465       .  S
O323       Cu331   2.011       .  S
O323        C333   1.277       .  A
O324       Cu331   2.004       .  S
O324        C334   1.276   1_455  A
O325       Cu331   2.001       .  S
O325        C335   1.277   1_455  A
O326       Cu331   1.998       .  S
O326        C336   1.277       .  A
O327       Cu332   2.008       .  S
O327        C336   1.277       .  A
O328       Cu332   2.010       .  S
O328        C335   1.277   1_455  A
O329       Cu332   2.015       .  S
O329        C334   1.278   1_455  A
O330       Cu332   2.014       .  S
O330        C333   1.278       .  A
Cu331      Cu332   2.378       .  S
C333        C347   1.468       .  S
C334        C728   1.466       .  S
C335        C376   1.463       .  S
C336        C472   1.463       .  S
C337        C342   1.380       .  A
C337        C338   1.404       .  A
C337        O343   1.319       .  A
C338        C339   1.403       .  A
C338        H349   1.082       .  S
C339        C348   1.362       .  A
C339        C340   1.380       .  A
C340        C341   1.403       .  A
C340        O346   1.319       .  A
C341        C342   1.403       .  A
C341        H350   1.082       .  S
C342        C345   1.362       .  A
O343        C344   1.331       .  A
C344        C345   1.390       .  A
C345        H351   1.082       .  S
O346        C347   1.331       .  A
C347        C348   1.391       .  A
C348        H352   1.082       .  S
C353        C358   1.381       .  A
C353        C354   1.400       .  A
C353        O359   1.316       .  A
C354        C355   1.399       .  A
C354        H365   1.082       .  S
C355        C364   1.358       .  A
C355        C356   1.381       .  A
C356        C357   1.401       .  A
C356        O362   1.316       .  A
C357        C358   1.400       .  A
C357        H366   1.082       .  S
C358        C361   1.359       .  A
O359        C360   1.328       .  A
C360        C361   1.389       .  A
C361        H367   1.083       .  S
O362        C363   1.329       .  A
C363        C364   1.388       .  A
C364        H368   1.083       .  S
C369        C374   1.381       .  A
C369        C370   1.403       .  A
C369        O375   1.318       .  A
C370        C371   1.402       .  A
C370        H381   1.082       .  S
C371        C380   1.361       .  A
C371        C372   1.381       .  A
C372        C373   1.402       .  A
C372        O378   1.318       .  A
C373        C374   1.401       .  A
C373        H382   1.082       .  S
C374        C377   1.360       .  A
O375        C376   1.330       .  A
C376        C377   1.389       .  A
C377        H383   1.083       .  S
O378        C379   1.330       .  A
C379        C380   1.391       .  A
C380        H384   1.082       .  S
C385        C390   1.381       .  A
C385        C386   1.401       .  A
C385        O391   1.317       .  A
C386        C387   1.401       .  A
C386        H397   1.082       .  S
C387        C396   1.359       .  A
C387        C388   1.381       .  A
C388        C389   1.401       .  A
C388        O394   1.317       .  A
C389        C390   1.401       .  A
C389        H398   1.082       .  S
C390        C393   1.359       .  A
O391        C392   1.329       .  A
C392        C393   1.389       .  A
C393        H399   1.082       .  S
O394        C395   1.329       .  A
C395        C396   1.389       .  A
C396        H400   1.083       .  S
C401        C406   1.381       .  A
C401        C402   1.402       .  A
C401        O407   1.317       .  A
C402        C403   1.401       .  A
C402        H413   1.082       .  S
C403        C412   1.360       .  A
C403        C404   1.381       .  A
C404        C405   1.400       .  A
C404        O410   1.316       .  A
C405        C406   1.399       .  A
C405        H414   1.082       .  S
C406        C409   1.358       .  A
O407        C408   1.329       .  A
C408        C409   1.388       .  A
C409        H415   1.083       .  S
O410        C411   1.328       .  A
C411        C412   1.390       .  A
C412        H416   1.083       .  S
C417        C422   1.381       .  A
C417        C418   1.404       .  A
C417        O423   1.320       .  A
C418        C419   1.403       .  A
C418        H429   1.082       .  S
C419        C428   1.361       .  A
C419        C420   1.381       .  A
C420        C421   1.402       .  A
C420        O426   1.319       .  A
C421        C422   1.402       .  A
C421        H430   1.082       .  S
C422        C425   1.360       .  A
O423        C424   1.331       .  A
C424        C425   1.391       .  A
C425        H431   1.083       .  S
O426        C427   1.330       .  A
C427        C428   1.390       .  A
C428        H432   1.082       .  S
C433        C438   1.381       .  A
C433        C434   1.402       .  A
C433        O439   1.317       .  A
C434        C435   1.401       .  A
C434        H445   1.082       .  S
C435        C444   1.361       .  A
C435        C436   1.381       .  A
C436        C437   1.401       .  A
C436        O442   1.316       .  A
C437        C438   1.400       .  A
C437        H446   1.082       .  S
C438        C441   1.360       .  A
O439        C440   1.329       .  A
C440        C441   1.388       .  A
C441        H447   1.083       .  S
O442        C443   1.329       .  A
C443        C444   1.390       .  A
C444        H448   1.083       .  S
C449        C454   1.381       .  A
C449        C450   1.401       .  A
C449        O455   1.316       .  A
C450        C451   1.400       .  A
C450        H461   1.082       .  S
C451        C460   1.359       .  A
C451        C452   1.381       .  A
C452        C453   1.402       .  A
C452        O458   1.317       .  A
C453        C454   1.401       .  A
C453        H462   1.082       .  S
C454        C457   1.361       .  A
O455        C456   1.329       .  A
C456        C457   1.390       .  A
C457        H463   1.082       .  S
O458        C459   1.329       .  A
C459        C460   1.388       .  A
C460        H464   1.083       .  S
C465        C470   1.381       .  A
C465        C466   1.403       .  A
C465        O471   1.318       .  A
C466        C467   1.402       .  A
C466        H477   1.082       .  S
C467        C476   1.362       .  A
C467        C468   1.381       .  A
C468        C469   1.400       .  A
C468        O474   1.315       .  A
C469        C470   1.399       .  A
C469        H478   1.082       .  S
C470        C473   1.358       .  A
O471        C472   1.330       .  A
C472        C473   1.389       .  A
C473        H479   1.083       .  S
O474        C475   1.328       .  A
C475        C476   1.390       .  A
C476        H480   1.082       .  S
C481        C486   1.381       .  A
C481        C482   1.403       .  A
C481        O487   1.318       .  A
C482        C483   1.402       .  A
C482        H493   1.082       .  S
C483        C492   1.363       .  A
C483        C484   1.381       .  A
C484        C485   1.403       .  A
C484        O490   1.318       .  A
C485        C486   1.402       .  A
C485        H494   1.082       .  S
C486        C489   1.362       .  A
O487        C488   1.330       .  A
C488        C489   1.390       .  A
C489        H495   1.083       .  S
O490        C491   1.330       .  A
C491        C492   1.391       .  A
C492        H496   1.082       .  S
C497        C502   1.381       .  A
C497        C498   1.403       .  A
C497        O503   1.318       .  A
C498        C499   1.403       .  A
C498        H509   1.082       .  S
C499        C508   1.362       .  A
C499        C500   1.382       .  A
C500        C501   1.400       .  A
C500        O506   1.316       .  A
C501        C502   1.399       .  A
C501        H510   1.082       .  S
C502        C505   1.358       .  A
O503        C504   1.331       .  A
C504        C505   1.389       .  A
C505        H511   1.083       .  S
O506        C507   1.328       .  A
C507        C508   1.390       .  A
C508        H512   1.082       .  S
C513        C518   1.381       .  A
C513        C514   1.403       .  A
C513        O519   1.318       .  A
C514        C515   1.402       .  A
C514        H525   1.082       .  S
C515        C524   1.361       .  A
C515        C516   1.381       .  A
C516        C517   1.401       .  A
C516        O522   1.317       .  A
C517        C518   1.400       .  A
C517        H526   1.082       .  S
C518        C521   1.359       .  A
O519        C520   1.330       .  A
C520        C521   1.389       .  A
C521        H527   1.083       .  S
O522        C523   1.329       .  A
C523        C524   1.390       .  A
C524        H528   1.083       .  S
C529        C534   1.381       .  A
C529        C530   1.402       .  A
C529        O535   1.317       .  A
C530        C531   1.401       .  A
C530        H541   1.082       .  S
C531        C540   1.361       .  A
C531        C532   1.381       .  A
C532        C533   1.404       .  A
C532        O538   1.319       .  A
C533        C534   1.403       .  A
C533        H542   1.082       .  S
C534        C537   1.362       .  A
O535        C536   1.330       .  A
C536        C537   1.391       .  A
C537        H543   1.082       .  S
O538        C539   1.330       .  A
C539        C540   1.390       .  A
C540        H544   1.082       .  S
C545        C550   1.381       .  A
C545        C546   1.401       .  A
C545        O551   1.318       .  A
C546        C547   1.401       .  A
C546        H557   1.082       .  S
C547        C556   1.359       .  A
C547        C548   1.381       .  A
C548        C549   1.402       .  A
C548        O554   1.318       .  A
C549        C550   1.402       .  A
C549        H558   1.082       .  S
C550        C553   1.359       .  A
O551        C552   1.329       .  A
C552        C553   1.390       .  A
C553        H559   1.083       .  S
O554        C555   1.330       .  A
C555        C556   1.389       .  A
C556        H560   1.083       .  S
C561        C566   1.381       .  A
C561        C562   1.401       .  A
C561        O567   1.317       .  A
C562        C563   1.400       .  A
C562        H573   1.082       .  S
C563        C572   1.358       .  A
C563        C564   1.381       .  A
C564        C565   1.403       .  A
C564        O570   1.318       .  A
C565        C566   1.402       .  A
C565        H574   1.082       .  S
C566        C569   1.361       .  A
O567        C568   1.329       .  A
C568        C569   1.390       .  A
C569        H575   1.082       .  S
O570        C571   1.330       .  A
C571        C572   1.389       .  A
C572        H576   1.083       .  S
C577        C582   1.381       .  A
C577        C578   1.401       .  A
C577        O583   1.316       .  A
C578        C579   1.400       .  A
C578        H589   1.082       .  S
C579        C588   1.359       .  A
C579        C580   1.381       .  A
C580        C581   1.400       .  A
C580        O586   1.316       .  A
C581        C582   1.400       .  A
C581        H590   1.082       .  S
C582        C585   1.358       .  A
O583        C584   1.329       .  A
C584        C585   1.389       .  A
C585        H591   1.083       .  S
O586        C587   1.329       .  A
C587        C588   1.388       .  A
C588        H592   1.083       .  S
C593        C598   1.381       .  A
C593        C594   1.402       .  A
C593        O599   1.318       .  A
C594        C595   1.401       .  A
C594        H605   1.082       .  S
C595        C604   1.360       .  A
C595        C596   1.381       .  A
C596        C597   1.402       .  A
C596        O602   1.318       .  A
C597        C598   1.402       .  A
C597        H606   1.082       .  S
C598        C601   1.361       .  A
O599        C600   1.330       .  A
C600        C601   1.390       .  A
C601        H607   1.082       .  S
O602        C603   1.330       .  A
C603        C604   1.389       .  A
C604        H608   1.083       .  S
C609        C614   1.381       .  A
C609        C610   1.404       .  A
C609        O615   1.319       .  A
C610        C611   1.403       .  A
C610        H621   1.082       .  S
C611        C620   1.362       .  A
C611        C612   1.381       .  A
C612        C613   1.401       .  A
C612        O618   1.317       .  A
C613        C614   1.400       .  A
C613        H622   1.082       .  S
C614        C617   1.358       .  A
O615        C616   1.331       .  A
C616        C617   1.389       .  A
C617        H623   1.083       .  S
O618        C619   1.329       .  A
C619        C620   1.391       .  A
C620        H624   1.082       .  S
C625        C630   1.381       .  A
C625        C626   1.405       .  A
C625        O631   1.321       .  A
C626        C627   1.405       .  A
C626        H637   1.082       .  S
C627        C636   1.363       .  A
C627        C628   1.381       .  A
C628        C629   1.401       .  A
C628        O634   1.318       .  A
C629        C630   1.401       .  A
C629        H638   1.082       .  S
C630        C633   1.360       .  A
O631        C632   1.332       .  A
C632        C633   1.390       .  A
C633        H639   1.083       .  S
O634        C635   1.329       .  A
C635        C636   1.392       .  A
C636        H640   1.082       .  S
C641        C646   1.381       .  A
C641        C642   1.405       .  A
C641        O647   1.320       .  A
C642        C643   1.405       .  A
C642        H653   1.082       .  S
C643        C652   1.364       .  A
C643        C644   1.381       .  A
C644        C645   1.399       .  A
C644        O650   1.315       .  A
C645        C646   1.398       .  A
C645        H654   1.082       .  S
C646        C649   1.357       .  A
O647        C648   1.332       .  A
C648        C649   1.388       .  A
C649        H655   1.083       .  S
O650        C651   1.328       .  A
C651        C652   1.392       .  A
C652        H656   1.082       .  S
C657        C662   1.381       .  A
C657        C658   1.401       .  A
C657        O663   1.316       .  A
C658        C659   1.400       .  A
C658        H669   1.082       .  S
C659        C668   1.359       .  A
C659        C660   1.381       .  A
C660        C661   1.404       .  A
C660        O666   1.319       .  A
C661        C662   1.403       .  A
C661        H670   1.082       .  S
C662        C665   1.362       .  A
O663        C664   1.329       .  A
C664        C665   1.391       .  A
C665        H671   1.083       .  S
O666        C667   1.331       .  A
C667        C668   1.389       .  A
C668        H672   1.083       .  S
C673        C678   1.381       .  A
C673        C674   1.402       .  A
C673        O679   1.318       .  A
C674        C675   1.401       .  A
C674        H685   1.082       .  S
C675        C684   1.361       .  A
C675        C676   1.381       .  A
C676        C677   1.402       .  A
C676        O682   1.317       .  A
C677        C678   1.401       .  A
C677        H686   1.082       .  S
C678        C681   1.361       .  A
O679        C680   1.330       .  A
C680        C681   1.390       .  A
C681        H687   1.082       .  S
O682        C683   1.330       .  A
C683        C684   1.390       .  A
C684        H688   1.083       .  S
C689        C694   1.381       .  A
C689        C690   1.402       .  A
C689        O695   1.318       .  A
C690        C691   1.402       .  A
C690        H701   1.082       .  S
C691        C700   1.361       .  A
C691        C692   1.381       .  A
C692        C693   1.401       .  A
C692        O698   1.316       .  A
C693        C694   1.400       .  A
C693        H702   1.082       .  S
C694        C697   1.359       .  A
O695        C696   1.330       .  A
C696        C697   1.389       .  A
C697        H703   1.083       .  S
O698        C699   1.329       .  A
C699        C700   1.390       .  A
C700        H704   1.082       .  S
C705        C710   1.381       .  A
C705        C706   1.403       .  A
C705        O711   1.318       .  A
C706        C707   1.402       .  A
C706        H717   1.082       .  S
C707        C716   1.361       .  A
C707        C708   1.381       .  A
C708        C709   1.400       .  A
C708        O714   1.316       .  A
C709        C710   1.399       .  A
C709        H718   1.082       .  S
C710        C713   1.358       .  A
O711        C712   1.330       .  A
C712        C713   1.388       .  A
C713        H719   1.082       .  S
O714        C715   1.328       .  A
C715        C716   1.391       .  A
C716        H720   1.083       .  S
C721        C726   1.381       .  A
C721        C722   1.402       .  A
C721        O727   1.317       .  A
C722        C723   1.401       .  A
C722        H733   1.082       .  S
C723        C732   1.362       .  A
C723        C724   1.381       .  A
C724        C725   1.404       .  A
C724        O730   1.318       .  A
C725        C726   1.402       .  A
C725        H734   1.082       .  S
C726        C729   1.363       .  A
O727        C728   1.330       .  A
C728        C729   1.391       .  A
C729        H735   1.082       .  S
O730        C731   1.330       .  A
C731        C732   1.390       .  A
C732        H736   1.082       .  S
C737        C742   1.381       .  A
C737        C738   1.402       .  A
C737        O743   1.318       .  A
C738        C739   1.401       .  A
C738        H749   1.082       .  S
C739        C748   1.359       .  A
C739        C740   1.381       .  A
C740        C741   1.402       .  A
C740        O746   1.319       .  A
C741        C742   1.402       .  A
C741        H750   1.082       .  S
C742        C745   1.360       .  A
O743        C744   1.330       .  A
C744        C745   1.390       .  A
C745        H751   1.082       .  S
O746        C747   1.330       .  A
C747        C748   1.390       .  A
C748        H752   1.083       .  S
C753        C758   1.380       .  A
C753        C754   1.403       .  A
C753        O759   1.318       .  A
C754        C755   1.402       .  A
C754        H765   1.082       .  S
C755        C764   1.362       .  A
C755        C756   1.381       .  A
C756        C757   1.405       .  A
C756        O762   1.320       .  A
C757        C758   1.404       .  A
C757        H766   1.082       .  S
C758        C761   1.365       .  A
O759        C760   1.331       .  A
C760        C761   1.392       .  A
C761        H767   1.082       .  S
O762        C763   1.331       .  A
C763        C764   1.390       .  A
C764        H768   1.083       .  S
C769        C774   1.381       .  A
C769        C770   1.399       .  A
C769        O775   1.315       .  A
C770        C771   1.398       .  A
C770        H781   1.082       .  S
C771        C780   1.358       .  A
C771        C772   1.381       .  A
C772        C773   1.402       .  A
C772        O778   1.317       .  A
C773        C774   1.401       .  A
C773        H782   1.082       .  S
C774        C777   1.361       .  A
O775        C776   1.328       .  A
C776        C777   1.390       .  A
C777        H783   1.083       .  S
O778        C779   1.330       .  A
C779        C780   1.388       .  A
C780        H784   1.083       .  S
C785        C790   1.381       .  A
C785        C786   1.400       .  A
C785        O791   1.316       .  A
C786        C787   1.399       .  A
C786        H797   1.082       .  S
C787        C796   1.358       .  A
C787        C788   1.381       .  A
C788        C789   1.404       .  A
C788        O794   1.319       .  A
C789        C790   1.404       .  A
C789        H798   1.082       .  S
C790        C793   1.363       .  A
O791        C792   1.329       .  A
C792        C793   1.391       .  A
C793        H799   1.082       .  S
O794        C795   1.331       .  A
C795        C796   1.388       .  A
C796        H800   1.083       .  S
C801        C806   1.381       .  A
C801        C802   1.401       .  A
C801        O807   1.316       .  A
C802        C803   1.400       .  A
C802        H813   1.082       .  S
C803        C812   1.360       .  A
C803        C804   1.381       .  A
C804        C805   1.403       .  A
C804        O810   1.317       .  A
C805        C806   1.401       .  A
C805        H814   1.082       .  S
C806        C809   1.361       .  A
O807        C808   1.329       .  A
C808        C809   1.390       .  A
C809        H815   1.082       .  S
O810        C811   1.330       .  A
C811        C812   1.389       .  A
C812        H816   1.083       .  S
C817        C822   1.381       .  A
C817        C818   1.404       .  A
C817        O823   1.319       .  A
C818        C819   1.403       .  A
C818        H829   1.082       .  S
C819        C828   1.363       .  A
C819        C820   1.381       .  A
C820        C821   1.403       .  A
C820        O826   1.318       .  A
C821        C822   1.402       .  A
C821        H830   1.082       .  S
C822        C825   1.362       .  A
O823        C824   1.331       .  A
C824        C825   1.389       .  A
C825        H831   1.082       .  S
O826        C827   1.330       .  A
C827        C828   1.392       .  A
C828        H832   1.082       .  S
C833        C838   1.381       .  A
C833        C834   1.402       .  A
C833        O839   1.317       .  A
C834        C835   1.401       .  A
C834        H845   1.082       .  S
C835        C844   1.361       .  A
C835        C836   1.380       .  A
C836        C837   1.405       .  A
C836        O842   1.320       .  A
C837        C838   1.404       .  A
C837        H846   1.082       .  S
C838        C841   1.364       .  A
O839        C840   1.329       .  A
C840        C841   1.392       .  A
C841        H847   1.082       .  S
O842        C843   1.332       .  A
C843        C844   1.389       .  A
C844        H848   1.082       .  S
C849        C854   1.381       .  A
C849        C850   1.401       .  A
C849        O855   1.317       .  A
C850        C851   1.400       .  A
C850        H861   1.082       .  S
C851        C860   1.360       .  A
C851        C852   1.381       .  A
C852        C853   1.403       .  A
C852        O858   1.318       .  A
C853        C854   1.402       .  A
C853        H862   1.082       .  S
C854        C857   1.362       .  A
O855        C856   1.329       .  A
C856        C857   1.390       .  A
C857        H863   1.082       .  S
O858        C859   1.330       .  A
C859        C860   1.389       .  A
C860        H864   1.082       .  S
C865        C870   1.381       .  A
C865        C866   1.399       .  A
C865        O871   1.315       .  A
C866        C867   1.398       .  A
C866        H877   1.082       .  S
C867        C876   1.357       .  A
C867        C868   1.381       .  A
C868        C869   1.404       .  A
C868        O874   1.319       .  A
C869        C870   1.403       .  A
C869        H878   1.082       .  S
C870        C873   1.362       .  A
O871        C872   1.328       .  A
C872        C873   1.391       .  A
C873        H879   1.082       .  S
O874        C875   1.330       .  A
C875        C876   1.388       .  A
C876        H880   1.083       .  S
C881        C886   1.381       .  A
C881        C882   1.403       .  A
C881        O887   1.319       .  A
C882        C883   1.402       .  A
C882        H893   1.082       .  S
C883        C892   1.360       .  A
C883        C884   1.381       .  A
C884        C885   1.403       .  A
C884        O890   1.319       .  A
C885        C886   1.402       .  A
C885        H894   1.082       .  S
C886        C889   1.361       .  A
O887        C888   1.330       .  A
C888        C889   1.390       .  A
C889        H895   1.082       .  S
O890        C891   1.330       .  A
C891        C892   1.390       .  A
C892        H896   1.083       .  S
C897        C902   1.381       .  A
C897        C898   1.404       .  A
C897        O903   1.320       .  A
C898        C899   1.404       .  A
C898        H909   1.082       .  S
C899        C908   1.363       .  A
C899        C900   1.381       .  A
C900        C901   1.402       .  A
C900        O906   1.318       .  A
C901        C902   1.402       .  A
C901        H910   1.082       .  S
C902        C905   1.360       .  A
O903        C904   1.330       .  A
C904        C905   1.390       .  A
C905        H911   1.083       .  S
O906        C907   1.330       .  A
C907        C908   1.391       .  A
C908        H912   1.082       .  S
C913        C918   1.381       .  A
C913        C914   1.402       .  A
C913        O919   1.317       .  A
C914        C915   1.401       .  A
C914        H925   1.082       .  S
C915        C924   1.361       .  A
C915        C916   1.381       .  A
C916        C917   1.402       .  A
C916        O922   1.317       .  A
C917        C918   1.401       .  A
C917        H926   1.082       .  S
C918        C921   1.361       .  A
O919        C920   1.329       .  A
C920        C921   1.389       .  A
C921        H927   1.082       .  S
O922        C923   1.330       .  A
C923        C924   1.389       .  A
C924        H928   1.082       .  S
C929        C934   1.381       .  A
C929        C930   1.403       .  A
C929        O935   1.319       .  A
C930        C931   1.403       .  A
C930        H941   1.082       .  S
C931        C940   1.362       .  A
C931        C932   1.381       .  A
C932        C933   1.405       .  A
C932        O938   1.320       .  A
C933        C934   1.404       .  A
C933        H942   1.082       .  S
C934        C937   1.363       .  A
O935        C936   1.330       .  A
C936        C937   1.391       .  A
C937        H943   1.082       .  S
O938        C939   1.331       .  A
C939        C940   1.390       .  A
C940        H944   1.082       .  S
C945        C950   1.380       .  A
C945        C946   1.406       .  A
C945        O951   1.321       .  A
C946        C947   1.405       .  A
C946        H957   1.082       .  S
C947        C956   1.365       .  A
C947        C948   1.380       .  A
C948        C949   1.403       .  A
C948        O954   1.319       .  A
C949        C950   1.402       .  A
C949        H958   1.082       .  S
C950        C953   1.362       .  A
O951        C952   1.332       .  A
C952        C953   1.390       .  A
C953        H959   1.082       .  S
O954        C955   1.330       .  A
C955        C956   1.393       .  A
C956        H960   1.082       .  S
C961        C966   1.381       .  A
C961        C962   1.400       .  A
C961        O967   1.316       .  A
C962        C963   1.399       .  A
C962        H973   1.082       .  S
C963        C972   1.359       .  A
C963        C964   1.381       .  A
C964        C965   1.403       .  A
C964        O970   1.318       .  A
C965        C966   1.402       .  A
C965        H974   1.082       .  S
C966        C969   1.361       .  A
O967        C968   1.328       .  A
C968        C969   1.391       .  A
C969        H975   1.082       .  S
O970        C971   1.330       .  A
C971        C972   1.388       .  A
C972        H976   1.083       .  S
C977        C982   1.380       .  A
C977        C978   1.408       .  A
C977        O983   1.321       .  A
C978        C979   1.407       .  A
C978        H989   1.082       .  S
C979        C988   1.367       .  A
C979        C980   1.381       .  A
C980        C981   1.402       .  A
C980        O986   1.318       .  A
C981        C982   1.401       .  A
C981        H990   1.082       .  S
C982        C985   1.362       .  A
O983        C984   1.333       .  A
C984        C985   1.390       .  A
C985        H991   1.082       .  S
O986        C987   1.329       .  A
C987        C988   1.393       .  A
C988        H992   1.082       .  S
C993        C998   1.381       .  A
C993        C994   1.401       .  A
C993        O999   1.317       .  A
C994        C995   1.400       .  A
C994       H1005   1.082       .  S
C995       C1004   1.359       .  A
C995        C996   1.381       .  A
C996        C997   1.400       .  A
C996       O1002   1.316       .  A
C997        C998   1.400       .  A
C997       H1006   1.082       .  S
C998       C1001   1.359       .  A
O999       C1000   1.329       .  A
C1000      C1001   1.388       .  A
C1001      H1007   1.083       .  S
O1002      C1003   1.328       .  A
C1003      C1004   1.389       .  A
C1004      H1008   1.083       .  S
C1009      C1014   1.381       .  A
C1009      C1010   1.402       .  A
C1009      O1015   1.318       .  A
C1010      C1011   1.401       .  A
C1010      H1021   1.082       .  S
C1011      C1020   1.359       .  A
C1011      C1012   1.381       .  A
C1012      C1013   1.403       .  A
C1012      O1018   1.319       .  A
C1013      C1014   1.403       .  A
C1013      H1022   1.082       .  S
C1014      C1017   1.361       .  A
O1015      C1016   1.330       .  A
C1016      C1017   1.390       .  A
C1017      H1023   1.082       .  S
O1018      C1019   1.330       .  A
C1019      C1020   1.390       .  A
C1020      H1024   1.083       .  S
C1025      C1030   1.380       .  A
C1025      C1026   1.405       .  A
C1025      O1031   1.321       .  A
C1026      C1027   1.404       .  A
C1026      H1037   1.082       .  S
C1027      C1036   1.363       .  A
C1027      C1028   1.381       .  A
C1028      C1029   1.403       .  A
C1028      O1034   1.319       .  A
C1029      C1030   1.402       .  A
C1029      H1038   1.082       .  S
C1030      C1033   1.361       .  A
O1031      C1032   1.331       .  A
C1032      C1033   1.391       .  A
C1033      H1039   1.082       .  S
O1034      C1035   1.330       .  A
C1035      C1036   1.391       .  A
C1036      H1040   1.082       .  S
C1041      C1046   1.381       .  A
C1041      C1042   1.402       .  A
C1041      O1047   1.317       .  A
C1042      C1043   1.401       .  A
C1042      H1053   1.082       .  S
C1043      C1052   1.361       .  A
C1043      C1044   1.381       .  A
C1044      C1045   1.401       .  A
C1044      O1050   1.316       .  A
C1045      C1046   1.400       .  A
C1045      H1054   1.082       .  S
C1046      C1049   1.360       .  A
O1047      C1048   1.329       .  A
C1048      C1049   1.389       .  A
C1049      H1055   1.083       .  S
O1050      C1051   1.329       .  A
C1051      C1052   1.390       .  A
C1052      H1056   1.082       .  S
C1057      C1062   1.381       .  A
C1057      C1058   1.402       .  A
C1057      O1063   1.318       .  A
C1058      C1059   1.401       .  A
C1058      H1069   1.082       .  S
C1059      C1068   1.360       .  A
C1059      C1060   1.381       .  A
C1060      C1061   1.404       .  A
C1060      O1066   1.320       .  A
C1061      C1062   1.403       .  A
C1061      H1070   1.082       .  S
C1062      C1065   1.363       .  A
O1063      C1064   1.330       .  A
C1064      C1065   1.391       .  A
C1065      H1071   1.082       .  S
O1066      C1067   1.331       .  A
C1067      C1068   1.389       .  A
C1068      H1072   1.083       .  S
C1073      C1078   1.381       .  A
C1073      C1074   1.404       .  A
C1073      O1079   1.319       .  A
C1074      C1075   1.403       .  A
C1074      H1085   1.082       .  S
C1075      C1084   1.362       .  A
C1075      C1076   1.381       .  A
C1076      C1077   1.403       .  A
C1076      O1082   1.319       .  A
C1077      C1078   1.402       .  A
C1077      H1086   1.082       .  S
C1078      C1081   1.360       .  A
O1079      C1080   1.330       .  A
C1080      C1081   1.390       .  A
C1081      H1087   1.083       .  S
O1082      C1083   1.330       .  A
C1083      C1084   1.391       .  A
C1084      H1088   1.082       .  S
C1089      C1094   1.381       .  A
C1089      C1090   1.404       .  A
C1089      O1095   1.319       .  A
C1090      C1091   1.403       .  A
C1090      H1101   1.082       .  S
C1091      C1100   1.362       .  A
C1091      C1092   1.381       .  A
C1092      C1093   1.401       .  A
C1092      O1098   1.316       .  A
C1093      C1094   1.400       .  A
C1093      H1102   1.082       .  S
C1094      C1097   1.359       .  A
O1095      C1096   1.331       .  A
C1096      C1097   1.389       .  A
C1097      H1103   1.083       .  S
O1098      C1099   1.329       .  A
C1099      C1100   1.391       .  A
C1100      H1104   1.082       .  S
