geometry optimzed in LAMMPS
_audit_creation_date              2020-12-01 
_audit_creation_method            'lammps2cif' 
_symmetry_space_group_name_H-M    'P1' 
_symmetry_Int_Tables_number       1 
_symmetry_cell_setting            triclinic 
loop_ 
_symmetry_equiv_pos_as_xyz 
  x,y,z 
_cell_length_a                    45.19407198 
_cell_length_b                    45.39423039206184 
_cell_length_c                    45.225610944922586 
_cell_angle_alpha                 89.98979550769249 
_cell_angle_beta                  89.93534229700546 
_cell_angle_gamma                 90.00299605398475 
loop_ 
_atom_site_label 
_atom_site_type_symbol 
_atom_site_fract_x 
_atom_site_fract_y 
_atom_site_fract_z 
_atom_site_charge 
N1          N  0.06219663  0.48561911  0.21559717    -0.06000
N2          N  0.07959186  0.47553671  0.19442956    -0.58100
N3          N  0.05961773  0.01478508  0.28345237    -0.05700
N4          N  0.07591237  0.02516680  0.30525636    -0.60200
N5          N  0.05942715  0.48573968  0.28384717    -0.05300
N6          N  0.07558752  0.47589040  0.30615043    -0.58100
N7          N  0.06231827  0.01457656  0.21576996    -0.04900
N8          N  0.07980966  0.02482044  0.19485518    -0.60600
C9          C  0.09041432  0.00030410  0.18164903     0.96200
C10         C  0.08566890  0.50075512  0.31941147     0.96000
N11         N  0.48250803  0.06547397  0.28035248    -0.06200
N12         N  0.47204226  0.08429923  0.30001172    -0.58700
N13         N  0.01339093  0.06322815  0.21284507    -0.04300
N14         N  0.02417552  0.07797782  0.19005592    -0.59900
N15         N  0.48429611  0.06355168  0.21233029    -0.06200
N16         N  0.47474811  0.07844365  0.18919453    -0.59000
N17         N  0.01157188  0.06514809  0.28102776    -0.03900
N18         N  0.02145475  0.08363455  0.30126114    -0.60000
Mn19       Mn  0.03736956  0.04002521  0.24835372     1.18400
C20         C  0.49657808  0.09540590  0.31306715     0.98300
C21         C  0.99979721  0.08732172  0.17535719     0.98900
N22         N  0.00994856  0.43630507  0.28076064    -0.06200
N23         N  0.01935328  0.41868946  0.30190046    -0.62500
N24         N  0.48304980  0.43815107  0.21175346    -0.05000
N25         N  0.47330435  0.42250868  0.18917803    -0.63200
N26         N  0.01215213  0.43760232  0.21272345    -0.05700
N27         N  0.02270128  0.42153905  0.19075569    -0.62800
N28         N  0.48088688  0.43630976  0.27976879    -0.04600
N29         N  0.46994865  0.41868527  0.30031289    -0.63500
Mn30       Mn  0.03665521  0.46057088  0.24833758     1.10700
C31         C  0.49424203  0.40787406  0.31407216     0.99500
C32         C  0.99823789  0.41231540  0.17609038     0.99600
N33         N  0.43432448  0.01634669  0.21229873    -0.05700
N34         N  0.41745567  0.02718006  0.19115823    -0.61100
N35         N  0.43321579  0.48646381  0.27994601    -0.05100
N36         N  0.41741573  0.47613240  0.30222727    -0.57800
N37         N  0.43361931  0.01544671  0.28041433    -0.06400
N38         N  0.41798187  0.02533443  0.30298916    -0.60700
N39         N  0.43406410  0.48743141  0.21168611    -0.05400
N40         N  0.41696405  0.47798893  0.19004044    -0.57900
Mn41       Mn  0.45798990  0.04084291  0.24648161     1.20200
Mn42       Mn  0.45705448  0.46142170  0.24569992     1.10100
Cl43       Cl  0.99729064  0.00068082  0.24739288    -0.85800
C44         C  0.40682797  0.00302671  0.17730838     0.96500
C45         C  0.40804483  0.50061378  0.31652585     0.96300
N46         N  0.48462785  0.21487248  0.06149455    -0.06000
N47         N  0.47503769  0.19210370  0.07687122    -0.58100
N48         N  0.01257102  0.28335135  0.06270282    -0.05700
N49         N  0.02279960  0.30568856  0.07828949    -0.60200
N50         N  0.48349914  0.28296172  0.06341979    -0.05300
N51         N  0.47338891  0.30504098  0.07951285    -0.58100
N52         N  0.01373481  0.21519505  0.06090196    -0.04900
N53         N  0.02445525  0.19260555  0.07591443    -0.60600
C54         C  0.00003923  0.17823720  0.08571054     0.96200
C55         C  0.49815119  0.31915543  0.08864386     0.96000
N56         N  0.05949486  0.28649180  0.48339647    -0.06200
N57         N  0.07475188  0.30927476  0.47347993    -0.58700
N58         N  0.06205689  0.21785782  0.01085048    -0.04300
N59         N  0.07943544  0.19645419  0.02017912    -0.59900
N60         N  0.06141671  0.21845537  0.48179701    -0.06200
N61         N  0.07839692  0.19746021  0.47080518    -0.59000
N62         N  0.06017376  0.28572140  0.01245785    -0.03900
N63         N  0.07588334  0.30791849  0.02283085    -0.60000
Mn64       Mn  0.03785888  0.25047220  0.03745884     1.18400
C65         C  0.08483340  0.32257724  0.49832974     0.98300
C66         C  0.08945993  0.18377310  0.49500468     0.98900
N67         N  0.43325934  0.28353404  0.01570906    -0.06200
N68         N  0.41663306  0.30480792  0.02675340    -0.62500
N69         N  0.43331870  0.21656383  0.48485195    -0.05000
N70         N  0.41546453  0.19597415  0.47461302    -0.63200
N71         N  0.43379417  0.21605302  0.01393114    -0.05700
N72         N  0.41615852  0.19521532  0.02405518    -0.62800
N73         N  0.43274708  0.28421661  0.48663092    -0.04600
N74         N  0.41580684  0.30597984  0.47737844    -0.63500
Mn75       Mn  0.45819868  0.24927793  0.03940847     1.10700
C76         C  0.40592971  0.31880296  0.50256575     0.99500
C77         C  0.40497623  0.18276309  0.49930467     0.99600
N78         N  0.01073773  0.21848103  0.43360763    -0.05700
N79         N  0.02083585  0.19846791  0.41498766    -0.61100
N80         N  0.48050804  0.28554392  0.43551203    -0.05100
N81         N  0.46975705  0.30601316  0.41776156    -0.57800
N82         N  0.00959525  0.28583247  0.43489432    -0.06400
N83         N  0.01917110  0.30646715  0.41677317    -0.60700
N84         N  0.48160568  0.21813253  0.43412602    -0.05400
N85         N  0.47138813  0.19791937  0.41579069    -0.57900
Mn86       Mn  0.03599227  0.25229790  0.45786141     1.20200
Mn87       Mn  0.45638649  0.25109626  0.45975027     1.10100
Cl88       Cl  0.49709931  0.25071216  0.49858887    -0.85800
C89         C  0.99608706  0.18567964  0.40404882     0.96500
C90         C  0.49415834  0.31905374  0.40628621     0.96300
N91         N  0.28115114  0.43655474  0.48571858    -0.06000
N92         N  0.30293992  0.41944182  0.47664306    -0.58100
N93         N  0.21224300  0.43774983  0.01270187    -0.05700
N94         N  0.18964448  0.42237186  0.02285366    -0.60200
N95         N  0.21269226  0.43719587  0.48364915    -0.05300
N96         N  0.19034616  0.42138071  0.47347729    -0.58100
N97         N  0.28041774  0.43727303  0.01478104    -0.04900
N98         N  0.30158715  0.42061170  0.02601389    -0.60600
C99         C  0.31563489  0.40967332  0.50195274     0.96200
C100        C  0.17603265  0.41229403  0.49821267     0.96000
N101        N  0.21105913  0.01630639  0.05989137    -0.06200
N102        N  0.18964692  0.02654007  0.07684033    -0.58700
N103        N  0.27889468  0.48775778  0.06279146    -0.04300
N104        N  0.29991564  0.47812953  0.08054418    -0.59900
N105        N  0.27864212  0.01671334  0.06234298    -0.06200
N106        N  0.29944115  0.02737539  0.07977818    -0.59000
N107        N  0.21127296  0.48734338  0.06038383    -0.03900
N108        N  0.19000375  0.47724983  0.07755580    -0.60000
Mn109      Mn  0.24579917  0.46187105  0.03828487     1.18400
C110        C  0.17658866  0.00193248  0.08758372     0.98300
C111        C  0.31262782  0.50306354  0.09093119     0.98900
N112        N  0.21423424  0.48540331  0.43368150    -0.06200
N113        N  0.19168346  0.47559873  0.41785346    -0.62500
N114        N  0.28309806  0.01372442  0.43504034    -0.05000
N115        N  0.30513537  0.02371319  0.41876975    -0.63200
N116        N  0.28303121  0.48476085  0.43519846    -0.05700
N117        N  0.30515403  0.47453873  0.41896677    -0.62800
N118        N  0.21493140  0.01437943  0.43317483    -0.04600
N119        N  0.19310657  0.02483692  0.41695502    -0.63500
Mn120      Mn  0.24783396  0.46017163  0.45876152     1.10700
C121        C  0.17866452  0.00051093  0.40753830     0.99500
C122        C  0.31887716  0.49916729  0.40887776     0.99600
N123        N  0.28039978  0.06464818  0.01225675    -0.05700
N124        N  0.30094417  0.08231774  0.02291694    -0.61100
N125        N  0.21366553  0.06432074  0.48092171    -0.05100
N126        N  0.19258759  0.08124738  0.46991226    -0.57800
N127        N  0.21259827  0.06449572  0.00996490    -0.06400
N128        N  0.19084303  0.08146144  0.01928952    -0.60700
N129        N  0.28172082  0.06388633  0.48322216    -0.05400
N130        N  0.30326734  0.08099416  0.47353217    -0.57900
Mn131      Mn  0.24562039  0.04118617  0.03670566     1.20200
Mn132      Mn  0.24848895  0.03964537  0.45735205     1.10100
Cl133      Cl  0.24705275  0.50071246  0.49775798    -0.85800
C134        C  0.31514566  0.09227966  0.49855075     0.96500
C135        C  0.17837696  0.09172504  0.49413810     0.96300
C136        C  0.35441864  0.37939481  0.47653387     0.23700
C137        C  0.34045138  0.38816554  0.50292038    -0.24400
C138        C  0.34979877  0.37534151  0.02976271     0.18600
C139        C  0.37176597  0.35348066  0.02992678     0.23700
C140        C  0.38463497  0.34376497  0.50322684    -0.24300
C141        C  0.37608296  0.35749101  0.47666696     0.18600
F142        F  0.38844493  0.34959908  0.45047283    -0.14300
F143        F  0.34695474  0.39175092  0.45024968    -0.16600
F144        F  0.37985477  0.34144930  0.05620248    -0.16700
F145        F  0.33722669  0.38330994  0.05585090    -0.14300
C146        C  0.35787045  0.11829752  0.47474203     0.23700
C147        C  0.33875897  0.11479853  0.49906570    -0.24400
C148        C  0.34170401  0.13378276  0.02349153     0.18600
C149        C  0.36330976  0.15577595  0.02359046     0.23700
C150        C  0.38242506  0.15924848  0.49928572    -0.24300
C151        C  0.37936240  0.14045396  0.47476595     0.18600
F152        F  0.39741235  0.14325280  0.45090863    -0.14300
F153        F  0.35606782  0.10002497  0.45104723    -0.16600
F154        F  0.36465863  0.17443762  0.04702071    -0.16700
F155        F  0.32299763  0.13183440  0.04692901    -0.14300
C156        C  0.11928741  0.35676404  0.52518099     0.23700
C157        C  0.10556640  0.34802230  0.49864874    -0.24400
C158        C  0.11317093  0.36283136  0.47231733     0.18600
C159        C  0.13532907  0.38445605  0.47224692     0.23700
C160        C  0.15032180  0.39183538  0.49852597    -0.24300
C161        C  0.14132295  0.37836374  0.52512381     0.18600
F162        F  0.15456137  0.38518120  0.05116466    -0.14300
F163        F  0.11222784  0.34374515  0.05127048    -0.16600
F164        F  0.14227298  0.39786747  0.44631412    -0.16700
F165        F  0.09951839  0.35614695  0.44644361    -0.14300
C166        C  0.12468442  0.15054802  0.46755756     0.23700
C167        C  0.11085509  0.15895834  0.49419805    -0.24400
C168        C  0.11821356  0.14379854  0.02032573     0.18600
C169        C  0.13920289  0.12121533  0.01996544     0.23700
C170        C  0.15400180  0.11365329  0.49361627    -0.24300
C171        C  0.14616984  0.12830511  0.46730507     0.18600
F172        F  0.15980642  0.12176773  0.44135897    -0.14300
F173        F  0.11810000  0.16434677  0.44175468    -0.16600
F174        F  0.14504931  0.10686277  0.04564948    -0.16700
F175        F  0.10521247  0.15079926  0.04647839    -0.14300
C176        C  0.37353399  0.52658568  0.35127502     0.23700
C177        C  0.38755704  0.50042236  0.34226645    -0.24400
C178        C  0.38064392  0.47402790  0.35721758     0.18600
C179        C  0.35896318  0.47360653  0.37946610     0.23700
C180        C  0.34380517  0.49958663  0.38731900    -0.24300
C181        C  0.35193276  0.52617205  0.37338264     0.18600
F182        F  0.33825786  0.55189676  0.38027179    -0.14300
F183        F  0.37987905  0.55266966  0.33801387    -0.16600
F184        F  0.35267958  0.44767426  0.39305628    -0.16700
F185        F  0.39468475  0.44850352  0.35023874    -0.14300
C186        C  0.14929586  0.02568289  0.36796722     0.23700
C187        C  0.15328045  0.00126898  0.38674644    -0.24400
C188        C  0.13337653  0.47746018  0.38470079     0.18600
C189        C  0.11070540  0.47761599  0.36349477     0.23700
C190        C  0.10769013  0.50142564  0.34376786    -0.24300
C191        C  0.12691927  0.02571314  0.34666488     0.18600
F192        F  0.12506289  0.04903654  0.32795075    -0.14300
F193        F  0.16789234  0.04915219  0.36922235    -0.16600
F194        F  0.09157522  0.45458631  0.36244192    -0.16700
F195        F  0.13568080  0.45416728  0.40338808    -0.14300
C196        C  0.11686613  0.97540094  0.13980812     0.23700
C197        C  0.11185235  0.00073433  0.15701484    -0.24400
C198        C  0.12773249  0.02664413  0.15060648     0.18600
C199        C  0.14829130  0.02718792  0.12763473     0.23700
C200        C  0.15337857  0.00187106  0.11048970    -0.24300
C201        C  0.13733499  0.97601218  0.11665733     0.18600
F202        F  0.14141210  0.45118881  0.10032576    -0.14300
F203        F  0.10194364  0.44995907  0.14523349    -0.16600
F204        F  0.16398636  0.05228395  0.12301145    -0.16700
F205        F  0.12418604  0.05134971  0.16715423    -0.14300
C206        C  0.36814837  0.02976583  0.14782029     0.23700
C207        C  0.38420929  0.00380163  0.15368425    -0.24400
C208        C  0.37720430  0.47804622  0.13793121     0.18000
C209        C  0.35401270  0.47787182  0.11758655     0.23700
C210        C  0.33750142  0.50358271  0.11217925    -0.24300
C211        C  0.34494093  0.02960874  0.12739076     0.18600
F212        F  0.32921584  0.05477590  0.12328364    -0.14300
F213        F  0.37419175  0.05519266  0.16244381    -0.16600
F214        F  0.34783740  0.45238305  0.10316654    -0.16700
F215        F  0.39281071  0.45284442  0.14213688    -0.14300
C216        C  0.02196415  0.14638884  0.37465067     0.23700
C217        C  0.99609229  0.16255750  0.38080196    -0.24400
C218        C  0.47045208  0.15676387  0.36409624     0.18600
C219        C  0.47060576  0.13509432  0.34204846     0.23700
C220        C  0.49635990  0.11856965  0.33627320    -0.24300
C221        C  0.02208238  0.12465573  0.35270981     0.18600
F222        F  0.04742881  0.10933751  0.34786900    -0.14300
F223        F  0.04721377  0.15126232  0.39013180    -0.16600
F224        F  0.44565540  0.13087339  0.32589446    -0.16700
F225        F  0.44532859  0.17258379  0.36847554    -0.14300
C226        C  0.02047050  0.35174895  0.37022517     0.23700
C227        C  0.49380678  0.34243108  0.38334861    -0.24400
C228        C  0.46706520  0.35526330  0.37381296     0.18600
C229        C  0.46707364  0.37682176  0.35160657     0.23700
C230        C  0.49380174  0.38578602  0.33826782    -0.24300
C231        C  0.02045605  0.37302858  0.34800062     0.18600
F232        F  0.04678814  0.38074597  0.33577517    -0.14300
F233        F  0.04683090  0.34001445  0.37847675    -0.16600
F234        F  0.44088088  0.38892230  0.34333565    -0.16700
F235        F  0.44081857  0.34700990  0.38588628    -0.14300
C236        C  0.47182429  0.38179745  0.13781418     0.23700
C237        C  0.99849306  0.39114850  0.15097364    -0.24400
C238        C  0.02524305  0.37868429  0.14101311     0.18600
C239        C  0.02518023  0.35605213  0.12002798     0.23700
C240        C  0.49835601  0.34520909  0.10851248    -0.24300
C241        C  0.47173983  0.35898904  0.11698074     0.18600
F242        F  0.44543145  0.35016687  0.10550981    -0.14300
F243        F  0.44559818  0.39428032  0.14542470    -0.16600
F244        F  0.05150341  0.34422245  0.11173403    -0.16700
F245        F  0.05161023  0.38774272  0.15211157    -0.14300
C246        C  0.47347904  0.11789502  0.13735925     0.23700
C247        C  0.00021001  0.10733931  0.14932532    -0.24400
C248        C  0.02708054  0.11770011  0.13736233     0.18600
C249        C  0.02716182  0.13997115  0.11586439     0.23700
C250        C  0.00035676  0.15212413  0.10560848    -0.24300
C251        C  0.47355359  0.13992277  0.11579473     0.18600
F252        F  0.44711900  0.14986012  0.10563464    -0.14300
F253        F  0.44698166  0.10764460  0.14710881    -0.16600
F254        F  0.05357536  0.15014069  0.10581756    -0.16700
F255        F  0.05340296  0.10692925  0.14696288    -0.14300
N256        N  0.06219811  0.48562909  0.71558619    -0.06000
N257        N  0.07959495  0.47554919  0.69441869    -0.58100
N258        N  0.05961761  0.01478364  0.78344720    -0.05700
N259        N  0.07590759  0.02516663  0.80525423    -0.60200
N260        N  0.05943309  0.48574223  0.78383573    -0.05300
N261        N  0.07559315  0.47588941  0.80613758    -0.58100
N262        N  0.06231088  0.01457191  0.71576192    -0.04900
N263        N  0.07979508  0.02481613  0.69484154    -0.60600
C264        C  0.09039661  0.00030025  0.68163223     0.96200
C265        C  0.08567509  0.50075182  0.81940237     0.96000
N266        N  0.48250707  0.06547023  0.78034960    -0.06200
N267        N  0.47204278  0.08429426  0.80001082    -0.58700
N268        N  0.01338373  0.06322188  0.71283956    -0.04300
N269        N  0.02416551  0.07797099  0.69004845    -0.59900
N270        N  0.48428947  0.06354402  0.71232702    -0.06200
N271        N  0.47473925  0.07843486  0.68919149    -0.59000
N272        N  0.01157188  0.06514451  0.78102291    -0.03900
N273        N  0.02145677  0.08362986  0.80125645    -0.60000
Mn274      Mn  0.03736629  0.04002125  0.74834772     1.18400
C275        C  0.49657963  0.09540010  0.81306521     0.98300
C276        C  0.99978514  0.08731343  0.67535207     0.98900
N277        N  0.00995452  0.43630636  0.78074808    -0.06200
N278        N  0.01936011  0.41867970  0.80187861    -0.62500
N279        N  0.48304839  0.43816032  0.71174748    -0.05000
N280        N  0.47330053  0.42251679  0.68917395    -0.63200
N281        N  0.01215131  0.43761270  0.71271294    -0.05700
N282        N  0.02269798  0.42154871  0.69074460    -0.62800
N283        N  0.48089128  0.43631369  0.77976037    -0.04600
N284        N  0.46995353  0.41868098  0.80029730    -0.63500
Mn285      Mn  0.03665851  0.46057736  0.74832591     1.10700
C286        C  0.49424724  0.40786177  0.81404914     0.99500
C287        C  0.99823296  0.41232437  0.67608281     0.99600
N288        N  0.43431746  0.01633876  0.71230155    -0.05700
N289        N  0.41744719  0.02717064  0.69116143    -0.61100
N290        N  0.43322147  0.48647122  0.77994751    -0.05100
N291        N  0.41741867  0.47614018  0.80222706    -0.57800
N292        N  0.43361699  0.01544456  0.78041647    -0.06400
N293        N  0.41798069  0.02533454  0.80299117    -0.60700
N294        N  0.43406343  0.48744002  0.71168914    -0.05400
N295        N  0.41696063  0.47799686  0.69004634    -0.57900
Mn296      Mn  0.45798579  0.04083767  0.74648121     1.20200
Mn297      Mn  0.45705689  0.46142961  0.74569793     1.10100
Cl298      Cl  0.99728746  0.00067645  0.74739225    -0.85800
C299        C  0.40681837  0.00301645  0.67731384     0.96500
C300        C  0.40804713  0.50062196  0.81652475     0.96300
N301        N  0.48461943  0.21487478  0.56150125    -0.06000
N302        N  0.47502702  0.19210508  0.57687523    -0.58100
N303        N  0.01256595  0.28335169  0.56270863    -0.05700
N304        N  0.02279419  0.30569147  0.57829175    -0.60200
N305        N  0.48349445  0.28296351  0.56342381    -0.05300
N306        N  0.47338367  0.30504541  0.57951261    -0.58100
N307        N  0.01372534  0.21519432  0.56090942    -0.04900
N308        N  0.02444317  0.19260178  0.57591905    -0.60600
C309        C  0.00002538  0.17823465  0.58571259     0.96200
C310        C  0.49814557  0.31916085  0.58864227     0.96000
N311        N  0.05949503  0.28649666  0.98338697    -0.06200
N312        N  0.07475138  0.30927986  0.97347025    -0.58700
N313        N  0.06205068  0.21785110  0.51086012    -0.04300
N314        N  0.07942641  0.19644454  0.52018826    -0.59900
N315        N  0.06142297  0.21846139  0.98178736    -0.06200
N316        N  0.07840614  0.19746859  0.97079597    -0.59000
N317        N  0.06017319  0.28571659  0.51246728    -0.03900
N318        N  0.07588302  0.30791355  0.52284054    -0.60000
Mn319      Mn  0.03785382  0.25046914  0.53746758     1.18400
C320        C  0.08483286  0.32258238  0.99832002     0.98300
C321        C  0.08947082  0.18378385  0.99499609     0.98900
N322        N  0.43325629  0.28353901  0.51571411    -0.06200
N323        N  0.41663278  0.30481647  0.52675649    -0.62500
N324        N  0.43332338  0.21656237  0.98484525    -0.05000
N325        N  0.41546584  0.19597565  0.97460640    -0.63200
N326        N  0.43378801  0.21605587  0.51393774    -0.05700
N327        N  0.41615483  0.19521604  0.52406189    -0.62800
N328        N  0.43274923  0.28421349  0.98662570    -0.04600
N329        N  0.41580539  0.30597495  0.97737528    -0.63500
Mn330      Mn  0.45819281  0.24928100  0.53941440     1.10700
C331        C  0.40592736  0.31879455  0.00256404     0.99500
C332        C  0.40497703  0.18276496  0.99929797     0.99600
N333        N  0.01074302  0.21848197  0.93359913    -0.05700
N334        N  0.02084170  0.19846830  0.91498004    -0.61100
N335        N  0.48050965  0.28554308  0.93550186    -0.05100
N336        N  0.46975841  0.30600579  0.91774359    -0.57800
N337        N  0.00959748  0.28583195  0.93488338    -0.06400
N338        N  0.01917322  0.30645953  0.91675421    -0.60700
N339        N  0.48160993  0.21813231  0.93411831    -0.05400
N340        N  0.47139271  0.19791761  0.91578453    -0.57900
Mn341      Mn  0.03599562  0.25230078  0.95785212     1.20200
Mn342      Mn  0.45638969  0.25109531  0.95974299     1.10100
Cl343      Cl  0.49710316  0.25071260  0.99858114    -0.85800
C344        C  0.99609318  0.18567814  0.90404278     0.96500
C345        C  0.49415977  0.31904243  0.90626371     0.96300
N346        N  0.28116304  0.43655698  0.98571746    -0.06000
N347        N  0.30295317  0.41944511  0.97664356    -0.58100
N348        N  0.21223267  0.43775972  0.51270751    -0.05700
N349        N  0.18963359  0.42238337  0.52286127    -0.60200
N350        N  0.21270443  0.43718698  0.98364346    -0.05300
N351        N  0.19036005  0.42137096  0.97346959    -0.58100
N352        N  0.28040908  0.43727247  0.51478181    -0.04900
N353        N  0.30157988  0.42061146  0.52601347    -0.60600
C354        C  0.31564547  0.40967544  0.00195430     0.96200
C355        C  0.17604589  0.41228265  0.99820405     0.96000
N356        N  0.21105536  0.01630174  0.55988830    -0.06200
N357        N  0.18963885  0.02653597  0.57683153    -0.58700
N358        N  0.27889738  0.48776063  0.56279010    -0.04300
N359        N  0.29991604  0.47813118  0.58054549    -0.59900
N360        N  0.27863981  0.01670735  0.56234112    -0.06200
N361        N  0.29943982  0.02736863  0.57977523    -0.59000
N362        N  0.21127556  0.48735743  0.56038497    -0.03900
N363        N  0.19000386  0.47726801  0.57755571    -0.60000
Mn364      Mn  0.24579586  0.46187739  0.53828672     1.18400
C365        C  0.17657706  0.00192881  0.58757186     0.98300
C366        C  0.31262998  0.50306492  0.59093131     0.98900
N367        N  0.21424043  0.48539666  0.93367791    -0.06200
N368        N  0.19169211  0.47558952  0.91784759    -0.62500
N369        N  0.28309632  0.01372959  0.93504065    -0.05000
N370        N  0.30513421  0.02371930  0.91877136    -0.63200
N371        N  0.28303690  0.48476589  0.93519954    -0.05700
N372        N  0.30516014  0.47454679  0.91896672    -0.62800
N373        N  0.21492858  0.01438233  0.93317664    -0.04600
N374        N  0.19310026  0.02483968  0.91696103    -0.63500
Mn375      Mn  0.24784328  0.46016968  0.95875927     1.10700
C376        C  0.17865681  0.00051394  0.90754560     0.99500
C377        C  0.31887914  0.49917697  0.90887682     0.99600
N378        N  0.28039976  0.06464351  0.51225746    -0.05700
N379        N  0.30094407  0.08231264  0.52291895    -0.61100
N380        N  0.21366554  0.06432311  0.98092236    -0.05100
N381        N  0.19258913  0.08125060  0.96991221    -0.57800
N382        N  0.21259780  0.06449207  0.50996411    -0.06400
N383        N  0.19084107  0.08145569  0.51928955    -0.60700
N384        N  0.28171960  0.06389029  0.98322130    -0.05400
N385        N  0.30326559  0.08099799  0.97353009    -0.57900
Mn386      Mn  0.24561888  0.04118125  0.53670456     1.20200
Mn387      Mn  0.24848734  0.03964873  0.95735256     1.10100
Cl388      Cl  0.24705238  0.50070851  0.99775800    -0.85800
C389        C  0.31514472  0.09228426  0.99854789     0.96500
C390        C  0.17837963  0.09173046  0.99413744     0.96300
C391        C  0.35445336  0.37942186  0.97654290     0.23700
C392        C  0.34045948  0.38816569  0.00292426    -0.24400
C393        C  0.34982113  0.37537185  0.52976293     0.18600
C394        C  0.37179345  0.35351565  0.52992784     0.23700
C395        C  0.38463423  0.34375716  0.00322873    -0.24300
C396        C  0.37611324  0.35751351  0.97667474     0.18600
F397        F  0.38850409  0.34964912  0.95048584    -0.14300
F398        F  0.34702213  0.39181189  0.95026551    -0.16600
F399        F  0.37991551  0.34151744  0.55620849    -0.16700
F400        F  0.33727575  0.38336704  0.55585568    -0.14300
C401        C  0.35787020  0.11829964  0.97473825     0.23700
C402        C  0.33875730  0.11480348  0.99906120    -0.24400
C403        C  0.34170779  0.13377454  0.52349839     0.18600
C404        C  0.36331365  0.15576773  0.52359861     0.23700
C405        C  0.38242364  0.15925282  0.99927900    -0.24300
C406        C  0.37936228  0.14045584  0.97476103     0.18600
F407        F  0.39741396  0.14325191  0.95090466    -0.14300
F408        F  0.35606917  0.10002411  0.95104564    -0.16600
F409        F  0.36466498  0.17442552  0.54703186    -0.16700
F410        F  0.32300341  0.13182317  0.54693719    -0.14300
C411        C  0.11929220  0.35676254  0.02517109     0.23700
C412        C  0.10556878  0.34802457  0.99863895    -0.24400
C413        C  0.11317536  0.36283271  0.97230763     0.18600
C414        C  0.13533869  0.38445199  0.97223700     0.23700
C415        C  0.15033331  0.39182718  0.99851600    -0.24300
C416        C  0.14133258  0.37835681  0.02511379     0.18600
F417        F  0.15454908  0.38519243  0.55117485    -0.14300
F418        F  0.11222562  0.34374504  0.55128025    -0.16600
F419        F  0.14228554  0.39786219  0.94630428    -0.16700
F420        F  0.09951977  0.35615260  0.94643443    -0.14300
C421        C  0.12469645  0.15055854  0.96755193     0.23700
C422        C  0.11086667  0.15897062  0.99419145    -0.24400
C423        C  0.11820269  0.14378376  0.52033072     0.18600
C424        C  0.13919464  0.12120239  0.51996838     0.23700
C425        C  0.15400819  0.11366183  0.99361380    -0.24300
C426        C  0.14617898  0.12831311  0.96730135     0.18600
F427        F  0.15981593  0.12177305  0.94135610    -0.14300
F428        F  0.11811587  0.16435852  0.94174868    -0.16600
F429        F  0.14504138  0.10684688  0.54565072    -0.16700
F430        F  0.10519929  0.15077983  0.54648347    -0.14300
C431        C  0.37353161  0.52659504  0.85126889     0.23700
C432        C  0.38755614  0.50043154  0.84226251    -0.24400
C433        C  0.38064219  0.47403753  0.85721340     0.18600
C434        C  0.35896275  0.47361705  0.87946271     0.23700
C435        C  0.34380542  0.49959742  0.88731606    -0.24300
C436        C  0.35193098  0.52618217  0.87337742     0.18600
F437        F  0.33825477  0.55190649  0.88026540    -0.14300
F438        F  0.37987426  0.55267790  0.83800430    -0.16600
F439        F  0.35267962  0.44768494  0.89305325    -0.16700
F440        F  0.39468073  0.44851231  0.85023318    -0.14300
C441        C  0.14926104  0.02570032  0.86800092     0.23700
C442        C  0.15326761  0.00127253  0.88675787    -0.24400
C443        C  0.13339524  0.47743777  0.88467751     0.18600
C444        C  0.11072471  0.47759535  0.86347057     0.23700
C445        C  0.10769483  0.50141788  0.84376115    -0.24300
C446        C  0.12688563  0.02572995  0.84669681     0.18600
F447        F  0.12501001  0.04906902  0.82800432    -0.14300
F448        F  0.16783490  0.04918608  0.86927906    -0.16600
F449        F  0.09161042  0.45455345  0.86239906    -0.16700
F450        F  0.13571366  0.45413176  0.90334652    -0.14300
C451        C  0.11683411  0.97540357  0.63977779     0.23700
C452        C  0.11183125  0.00073198  0.65699491    -0.24400
C453        C  0.12772143  0.02663804  0.65059604     0.18600
C454        C  0.14828191  0.02718193  0.62762571     0.23700
C455        C  0.15336150  0.00186886  0.61047278    -0.24300
C456        C  0.13730562  0.97601470  0.61662880     0.18600
F457        F  0.14136264  0.45123672  0.60026658    -0.14300
F458        F  0.10189821  0.44999835  0.64517896    -0.16600
F459        F  0.16398776  0.05227321  0.62301298    -0.16700
F460        F  0.12418455  0.05133876  0.66715313    -0.14300
C461        C  0.36814572  0.02975691  0.64781795     0.23700
C462        C  0.38420113  0.00379068  0.65368813    -0.24400
C463        C  0.37720484  0.47805246  0.63793513     0.18000
C464        C  0.35401630  0.47787664  0.61758710     0.23700
C465        C  0.33749965  0.50358458  0.61218338    -0.24300
C466        C  0.34494184  0.02960142  0.62738459     0.18600
F467        F  0.32922333  0.05477151  0.62327026    -0.14300
F468        F  0.37419118  0.05518467  0.66243893    -0.16600
F469        F  0.34784998  0.45239003  0.60315932    -0.16700
F470        F  0.39281636  0.45285335  0.64213830    -0.14300
C471        C  0.02197061  0.14638638  0.87464544     0.23700
C472        C  0.99609841  0.16255427  0.88079755    -0.24400
C473        C  0.47045592  0.15675896  0.86409362     0.18600
C474        C  0.47060923  0.13508915  0.84204627     0.23700
C475        C  0.49636290  0.11856387  0.83627126    -0.24300
C476        C  0.02208794  0.12465144  0.85270609     0.18600
F477        F  0.04743428  0.10933315  0.84786491    -0.14300
F478        F  0.04722128  0.15126250  0.89012404    -0.16600
F479        F  0.44565904  0.13086898  0.82589188    -0.16700
F480        F  0.44533186  0.17257769  0.86847407    -0.14300
C481        C  0.02047300  0.35171396  0.87018013     0.23700
C482        C  0.49380899  0.34241132  0.88331753    -0.24400
C483        C  0.46706897  0.35525111  0.87378838     0.18600
C484        C  0.46707846  0.37680892  0.85158163     0.23700
C485        C  0.49380591  0.38576489  0.83823611    -0.24300
C486        C  0.02045956  0.37299273  0.84795471     0.18600
F487        F  0.04678997  0.38069714  0.83571719    -0.14300
F488        F  0.04683134  0.33996796  0.87842194    -0.16600
F489        F  0.44088734  0.38891853  0.84331871    -0.16700
F490        F  0.44082324  0.34700814  0.88587066    -0.14300
C491        C  0.47181595  0.38179851  0.63781573     0.23700
C492        C  0.99848604  0.39115709  0.65096671    -0.24400
C493        C  0.02523653  0.37869940  0.64099912     0.18600
C494        C  0.02517365  0.35606736  0.62001422     0.23700
C495        C  0.49834919  0.34521673  0.60850742    -0.24300
C496        C  0.47173172  0.35899049  0.61698203     0.18600
F497        F  0.44542246  0.35016204  0.60551786    -0.14300
F498        F  0.44558851  0.39427363  0.64543458    -0.16600
F499        F  0.05149764  0.34424552  0.61171157    -0.16700
F500        F  0.05160460  0.38776425  0.65209014    -0.14300
C501        C  0.47346468  0.11789886  0.63736698     0.23700
C502        C  0.00019410  0.10733164  0.64932061    -0.24400
C503        C  0.02706333  0.11767836  0.63734263     0.18600
C504        C  0.02714430  0.13995052  0.61584592     0.23700
C505        C  0.00033997  0.15211932  0.60560722    -0.24300
C506        C  0.47353871  0.13992885  0.61580479     0.18600
F507        F  0.44710367  0.14987889  0.60565844    -0.14300
F508        F  0.44696729  0.10765898  0.64712775    -0.16600
F509        F  0.05355747  0.15010482  0.60578250    -0.16700
F510        F  0.05338533  0.10689175  0.64692646    -0.14300
N511        N  0.06219897  0.98564600  0.21558900    -0.06000
N512        N  0.07959777  0.97556982  0.19442169    -0.58100
N513        N  0.05961156  0.51475857  0.28346060    -0.05700
N514        N  0.07590641  0.52513455  0.30526656    -0.60200
N515        N  0.05943999  0.98576593  0.28384047    -0.05300
N516        N  0.07560342  0.97592243  0.30614441    -0.58100
N517        N  0.06232318  0.51454941  0.21577646    -0.04900
N518        N  0.07981586  0.52478691  0.19485943    -0.60600
C519        C  0.09041432  0.50026708  0.18165420     0.96200
C520        C  0.08568030  0.00079068  0.31940311     0.96000
N521        N  0.48252008  0.56547278  0.28034533    -0.06200
N522        N  0.47205401  0.58430018  0.30000182    -0.58700
N523        N  0.01341385  0.56322005  0.21284670    -0.04300
N524        N  0.02420511  0.57797919  0.19006637    -0.59900
N525        N  0.48432031  0.56354842  0.21232583    -0.06200
N526        N  0.47477967  0.57845292  0.18919565    -0.59000
N527        N  0.01158369  0.56513839  0.28102890    -0.03900
N528        N  0.02146648  0.58362179  0.30126562    -0.60000
Mn529      Mn  0.03737896  0.54000707  0.24835842     1.18400
C530        C  0.49658905  0.59540008  0.31306390     0.98300
C531        C  0.99983032  0.58733407  0.17536832     0.98900
N532        N  0.00997085  0.93631654  0.28075794    -0.06200
N533        N  0.01937926  0.91870108  0.30189686    -0.62500
N534        N  0.48305882  0.93815476  0.21175643    -0.05000
N535        N  0.47330794  0.92250467  0.18918937    -0.63200
N536        N  0.01216213  0.93761002  0.21272038    -0.05700
N537        N  0.02270611  0.92154032  0.19075423    -0.62800
N538        N  0.48090937  0.93631583  0.27976612    -0.04600
N539        N  0.46997475  0.91868908  0.30030892    -0.63500
Mn540      Mn  0.03666831  0.96058862  0.24833174     1.10700
C541        C  0.49426956  0.90788133  0.31406660     0.99500
C542        C  0.99823841  0.91230977  0.17609891     0.99600
N543        N  0.43433244  0.51635581  0.21228815    -0.05700
N544        N  0.41746432  0.52719109  0.19114766    -0.61100
N545        N  0.43322250  0.98644847  0.27995193    -0.05100
N546        N  0.41741807  0.97610867  0.30222618    -0.57800
N547        N  0.43362021  0.51546213  0.28040393    -0.06400
N548        N  0.41799269  0.52535825  0.30298222    -0.60700
N549        N  0.43406370  0.98742247  0.21169317    -0.05400
N550        N  0.41696738  0.97797775  0.19004504    -0.57900
Mn551      Mn  0.45800134  0.54084755  0.24647220     1.20200
Mn552      Mn  0.45706548  0.96141882  0.24570315     1.10100
Cl553      Cl  0.99728910  0.50067387  0.24739346    -0.85800
C554        C  0.40682968  0.50303850  0.17730126     0.96500
C555        C  0.40803586  0.00058489  0.31652552     0.96300
N556        N  0.48461970  0.71487759  0.06149394    -0.06000
N557        N  0.47503860  0.69211303  0.07688349    -0.58100
N558        N  0.01254813  0.78335887  0.06269706    -0.05700
N559        N  0.02277457  0.80569377  0.07828708    -0.60200
N560        N  0.48347704  0.78296566  0.06341437    -0.05300
N561        N  0.47336449  0.80504128  0.07951178    -0.58100
N562        N  0.01372534  0.71520871  0.06090043    -0.04900
N563        N  0.02445442  0.69263102  0.07592308    -0.60600
C564        C  0.00004467  0.67826019  0.08572830     0.96200
C565        C  0.49812610  0.81915662  0.08864369     0.96000
N566        N  0.05948189  0.78649955  0.48338591    -0.06200
N567        N  0.07473966  0.80928305  0.47347183    -0.58700
N568        N  0.06205024  0.71787121  0.01085341    -0.04300
N569        N  0.07943473  0.69647320  0.02018433    -0.59900
N570        N  0.06141354  0.71846588  0.48178947    -0.06200
N571        N  0.07840642  0.69747942  0.47080070    -0.59000
N572        N  0.06015291  0.78573369  0.01245717    -0.03900
N573        N  0.07585741  0.80793244  0.02283270    -0.60000
Mn574      Mn  0.03784275  0.75048398  0.03745645     1.18400
C575        C  0.08481530  0.82258544  0.49832413     0.98300
C576        C  0.08947350  0.68379979  0.49500234     0.98900
N577        N  0.43324324  0.78353224  0.01570043    -0.06200
N578        N  0.41661692  0.80480652  0.02674439    -0.62500
N579        N  0.43331066  0.71656764  0.48482970    -0.05000
N580        N  0.41545369  0.69598094  0.47458932    -0.63200
N581        N  0.43378449  0.71605045  0.01392277    -0.05700
N582        N  0.41614879  0.69521225  0.02404638    -0.62800
N583        N  0.43273905  0.78421979  0.48661077    -0.04600
N584        N  0.41579767  0.80598345  0.47736022    -0.63500
Mn585      Mn  0.45818368  0.74927790  0.03940234     1.10700
C586        C  0.40591793  0.81880194  0.50254908     0.99500
C587        C  0.40496392  0.68277012  0.49928040     0.99600
N588        N  0.01073537  0.71848352  0.43359557    -0.05700
N589        N  0.02083520  0.69846834  0.41497895    -0.61100
N590        N  0.48050729  0.78554681  0.43549262    -0.05100
N591        N  0.46976142  0.80601522  0.41773846    -0.57800
N592        N  0.00959469  0.78583254  0.43487919    -0.06400
N593        N  0.01917581  0.80646419  0.41675830    -0.60700
N594        N  0.48160299  0.71813615  0.43410936    -0.05400
N595        N  0.47138703  0.69792149  0.41577499    -0.57900
Mn596      Mn  0.03598699  0.75230220  0.45785006     1.20200
Mn597      Mn  0.45638098  0.75110042  0.45972997     1.10100
Cl598      Cl  0.49708960  0.75071605  0.49857239    -0.85800
C599        C  0.99608729  0.68567949  0.40403869     0.96500
C600        C  0.49416636  0.81905179  0.40626547     0.96300
N601        N  0.28112232  0.93653934  0.48572590    -0.06000
N602        N  0.30290626  0.91942222  0.47664789    -0.58100
N603        N  0.21221145  0.93776920  0.01271578    -0.05700
N604        N  0.18961157  0.92239392  0.02286928    -0.60200
N605        N  0.21266634  0.93720435  0.48365577    -0.05300
N606        N  0.19031917  0.92139084  0.47348388    -0.58100
N607        N  0.28038656  0.93726237  0.01479224    -0.04900
N608        N  0.30155439  0.92059579  0.02602207    -0.60600
C609        C  0.31560119  0.90964995  0.50195567     0.96200
C610        C  0.17600774  0.91230295  0.49821968     0.96000
N611        N  0.21105735  0.51628133  0.05988793    -0.06200
N612        N  0.18964621  0.52650463  0.07684461    -0.58700
N613        N  0.27888657  0.98775477  0.06280371    -0.04300
N614        N  0.29990590  0.97812237  0.08055703    -0.59900
N615        N  0.27864164  0.51671631  0.06233315    -0.06200
N616        N  0.29943716  0.52738229  0.07977045    -0.59000
N617        N  0.21126337  0.98736834  0.06038963    -0.03900
N618        N  0.18998462  0.97728480  0.07755454    -0.60000
Mn619      Mn  0.24577965  0.96187818  0.03829681     1.18400
C620        C  0.17660081  0.50189137  0.08759141     0.98300
C621        C  0.31262543  0.00305450  0.09094072     0.98900
N622        N  0.21422546  0.98541348  0.43368740    -0.06200
N623        N  0.19166932  0.97561935  0.41786015    -0.62500
N624        N  0.28309277  0.51374317  0.43502748    -0.05000
N625        N  0.30512719  0.52374055  0.41875776    -0.63200
N626        N  0.28302317  0.98474224  0.43520777    -0.05700
N627        N  0.30513987  0.97451138  0.41897281    -0.62800
N628        N  0.21492536  0.51436975  0.43317142    -0.04600
N629        N  0.19309498  0.52481693  0.41695276    -0.63500
Mn630      Mn  0.24781485  0.96016789  0.45876882     1.10700
C631        C  0.17866554  0.50048417  0.40753376     0.99500
C632        C  0.31887305  0.99913504  0.40888533     0.99600
N633        N  0.28037693  0.56465824  0.01224823    -0.05700
N634        N  0.30092142  0.58232866  0.02290746    -0.61100
N635        N  0.21364921  0.56431609  0.48091919    -0.05100
N636        N  0.19257567  0.58124956  0.46991233    -0.57800
N637        N  0.21257353  0.56447845  0.00996273    -0.06400
N638        N  0.19082159  0.58144795  0.01929008    -0.60700
N639        N  0.28170294  0.56390108  0.48320777    -0.05400
N640        N  0.30324549  0.58101172  0.47351341    -0.57900
Mn641      Mn  0.24560765  0.54117889  0.03669967     1.20200
Mn642      Mn  0.24847587  0.53964998  0.45734372     1.10100
Cl643      Cl  0.24704764  0.00070814  0.49776571    -0.85800
C644        C  0.31512615  0.59229847  0.49852993     0.96500
C645        C  0.17837128  0.59173196  0.49413954     0.96300
C646        C  0.35438864  0.87938254  0.47652932     0.23700
C647        C  0.34042016  0.88814512  0.50291825    -0.24400
C648        C  0.34981001  0.87536481  0.02976469     0.18600
C649        C  0.37178711  0.85351277  0.02992500     0.23700
C650        C  0.38461807  0.84375911  0.50321494    -0.24300
C651        C  0.37606107  0.85748679  0.47665786     0.18600
F652        F  0.38842661  0.84960474  0.45046241    -0.14300
F653        F  0.34691890  0.89173946  0.45024720    -0.16600
F654        F  0.37993041  0.84152934  0.05620591    -0.16700
F655        F  0.33727952  0.88336901  0.05586181    -0.14300
C656        C  0.35786931  0.61829379  0.47473013     0.23700
C657        C  0.33873799  0.61481753  0.49904142    -0.24400
C658        C  0.34166980  0.63380667  0.02347039     0.18600
C659        C  0.36328188  0.65579382  0.02357103     0.23700
C660        C  0.38240903  0.65926050  0.49926090    -0.24300
C661        C  0.37936428  0.64044736  0.47475367     0.18600
F662        F  0.39743644  0.64322420  0.45091052    -0.14300
F663        F  0.35608477  0.60000014  0.45105034    -0.16600
F664        F  0.36462024  0.67446897  0.04699104    -0.16700
F665        F  0.32294458  0.63187860  0.04689450    -0.14300
C666        C  0.11929791  0.85673696  0.52517791     0.23700
C667        C  0.10554956  0.84802736  0.49864933    -0.24400
C668        C  0.11312811  0.86286468  0.47232699     0.18600
C669        C  0.13528405  0.88449128  0.47226007     0.23700
C670        C  0.15030093  0.89184145  0.49853336    -0.24300
C671        C  0.14133194  0.87833696  0.52512399     0.18600
F672        F  0.15458227  0.88514241  0.05116892    -0.14300
F673        F  0.11226017  0.84369609  0.05126766    -0.16600
F674        F  0.14220103  0.89793469  0.44633685    -0.16700
F675        F  0.09945088  0.85620730  0.44645927    -0.14300
C676        C  0.12472114  0.65059429  0.46756312     0.23700
C677        C  0.11087606  0.65899191  0.49419925    -0.24400
C678        C  0.11821040  0.64381221  0.02033077     0.18600
C679        C  0.13919185  0.62122111  0.01996930     0.23700
C680        C  0.15400904  0.61367430  0.49361879    -0.24300
C681        C  0.14619807  0.62834362  0.46731106     0.18600
F682        F  0.15984828  0.62181667  0.44136943    -0.14300
F683        F  0.11816108  0.66441347  0.44176501    -0.16600
F684        F  0.14502766  0.60686023  0.04565105    -0.16700
F685        F  0.10520430  0.65081021  0.04648167    -0.14300
C686        C  0.37352163  0.02654822  0.35127501     0.23700
C687        C  0.38753936  0.00038494  0.34225918    -0.24400
C688        C  0.38061560  0.97398597  0.35719849     0.18600
C689        C  0.35893954  0.97356470  0.37945233     0.23700
C690        C  0.34379406  0.99954817  0.38731856    -0.24300
C691        C  0.35192484  0.02613424  0.37338584     0.18600
F692        F  0.33825733  0.05186083  0.38028216    -0.14300
F693        F  0.37986725  0.05263392  0.33801769    -0.16600
F694        F  0.35264904  0.94763018  0.39303520    -0.16700
F695        F  0.39464022  0.94845742  0.35020243    -0.14300
C696        C  0.14926334  0.52566168  0.36799247     0.23700
C697        C  0.15327995  0.50123149  0.38674331    -0.24400
C698        C  0.13334651  0.97752126  0.38473135     0.18600
C699        C  0.11067939  0.97767902  0.36352110     0.23700
C700        C  0.10769782  0.00146703  0.34376322    -0.24300
C701        C  0.12688446  0.52568989  0.34669391     0.18600
F702        F  0.12499953  0.54903297  0.32800740    -0.14300
F703        F  0.16783008  0.54915285  0.36927159    -0.16600
F704        F  0.09151773  0.95467421  0.36249593    -0.16700
F705        F  0.13561649  0.95425095  0.40345113    -0.14300
C706        C  0.11690010  0.47534474  0.13984158     0.23700
C707        C  0.11185645  0.50069095  0.15702157    -0.24400
C708        C  0.12771357  0.52660896  0.15059005     0.18600
C709        C  0.14827508  0.52715055  0.12762099     0.23700
C710        C  0.15339286  0.50182209  0.11050212    -0.24300
C711        C  0.13737613  0.47595203  0.11669561     0.18600
F712        F  0.14133893  0.95126354  0.10025745    -0.14300
F713        F  0.10188624  0.95002448  0.14517815    -0.16600
F714        F  0.16394056  0.55226021  0.12297299    -0.16700
F715        F  0.12414001  0.55132849  0.16711083    -0.14300
C716        C  0.36815891  0.52978140  0.14780160     0.23700
C717        C  0.38420966  0.50381359  0.15367806    -0.24400
C718        C  0.37721628  0.97803944  0.13792331     0.18000
C719        C  0.35402549  0.97786625  0.11757688     0.23700
C720        C  0.33750097  0.00357203  0.11218631    -0.24300
C721        C  0.34495233  0.52962411  0.12737035     0.18600
F722        F  0.32923960  0.55479634  0.12324740    -0.14300
F723        F  0.37421186  0.55521228  0.16241395    -0.16600
F724        F  0.34786507  0.95238525  0.10313679    -0.16700
F725        F  0.39283491  0.95284293  0.14211585    -0.14300
C726        C  0.02196496  0.64637865  0.37465579     0.23700
C727        C  0.99609491  0.66255435  0.38079546    -0.24400
C728        C  0.47045864  0.65676577  0.36408031     0.18600
C729        C  0.47061565  0.63509516  0.34203389     0.23700
C730        C  0.49636841  0.61856461  0.33626882    -0.24300
C731        C  0.02208632  0.62464373  0.35271683     0.18600
F732        F  0.04743064  0.60931877  0.34788697    -0.14300
F733        F  0.04720969  0.65124724  0.39014641    -0.16600
F734        F  0.44567020  0.63087942  0.32587086    -0.16700
F735        F  0.44533672  0.67259079  0.36845034    -0.14300
C736        C  0.02049047  0.85175848  0.37022417     0.23700
C737        C  0.49382208  0.84242954  0.38332983    -0.24400
C738        C  0.46708197  0.85525518  0.37378329     0.18600
C739        C  0.46709572  0.87681742  0.35158229     0.23700
C740        C  0.49382787  0.88579133  0.33825850    -0.24300
C741        C  0.02048107  0.87304190  0.34800327     0.18600
F742        F  0.04681662  0.88077117  0.33579258    -0.14300
F743        F  0.04685052  0.84003284  0.37848969    -0.16600
F744        F  0.44090309  0.88891146  0.34330137    -0.16700
F745        F  0.44083126  0.84699156  0.38584058    -0.14300
C746        C  0.47181151  0.88179612  0.13782534     0.23700
C747        C  0.99848437  0.89113913  0.15098561    -0.24400
C748        C  0.02522986  0.87866824  0.14102379     0.18600
C749        C  0.02516006  0.85603972  0.12003591     0.23700
C750        C  0.49833321  0.84520517  0.10851831    -0.24300
C751        C  0.47172028  0.85898941  0.11698934     0.18600
F752        F  0.44540990  0.85017548  0.10551615    -0.14300
F753        F  0.44558918  0.89428668  0.14543660    -0.16600
F754        F  0.05148046  0.84420657  0.11173853    -0.16700
F755        F  0.05159981  0.88771706  0.15212309    -0.14300
C756        C  0.47351747  0.61787902  0.13734594     0.23700
C757        C  0.00024666  0.60736424  0.14934620    -0.24400
C758        C  0.02711595  0.61777232  0.13742222     0.18600
C759        C  0.02718874  0.64004745  0.11592874     0.23700
C760        C  0.00037701  0.65215533  0.10563568    -0.24300
C761        C  0.47358404  0.63991012  0.11578500     0.18600
F762        F  0.44714715  0.64980540  0.10558979    -0.14300
F763        F  0.44702414  0.60758186  0.14705644    -0.16600
F764        F  0.05359927  0.65026887  0.10592693    -0.16700
F765        F  0.05344381  0.60704710  0.14705917    -0.14300
N766        N  0.06219245  0.98564122  0.71558163    -0.06000
N767        N  0.07958488  0.97556549  0.69440861    -0.58100
N768        N  0.05961788  0.51476127  0.78345280    -0.05700
N769        N  0.07591280  0.52513355  0.80526073    -0.60200
N770        N  0.05944073  0.98576451  0.78383653    -0.05300
N771        N  0.07560046  0.97592259  0.80614392    -0.58100
N772        N  0.06232502  0.51455958  0.71576861    -0.04900
N773        N  0.07981954  0.52479952  0.69485472    -0.60600
C774        C  0.09041854  0.50028116  0.68164749     0.96200
C775        C  0.08567443  0.00079153  0.81940397     0.96000
N776        N  0.48252602  0.56547937  0.78034456    -0.06200
N777        N  0.47206143  0.58430827  0.80000031    -0.58700
N778        N  0.01341225  0.56322859  0.71284282    -0.04300
N779        N  0.02419803  0.57798507  0.69005777    -0.59900
N780        N  0.48431904  0.56355554  0.71232658    -0.06200
N781        N  0.47477366  0.57845660  0.68919655    -0.59000
N782        N  0.01159081  0.56514514  0.78102602    -0.03900
N783        N  0.02147539  0.58363030  0.80126007    -0.60000
Mn784      Mn  0.03738274  0.54001448  0.74835291     1.18400
C785        C  0.49659734  0.59540910  0.81305961     0.98300
C786        C  0.99981935  0.58733709  0.67536367     0.98900
N787        N  0.00997140  0.93631564  0.78076147    -0.06200
N788        N  0.01938053  0.91870440  0.80190367    -0.62500
N789        N  0.48305340  0.93814702  0.71176196    -0.05000
N790        N  0.47330157  0.92249553  0.68919630    -0.63200
N791        N  0.01215727  0.93760379  0.71272301    -0.05700
N792        N  0.02270003  0.92153368  0.69075679    -0.62800
N793        N  0.48090825  0.93631540  0.77977226    -0.04600
N794        N  0.46997429  0.91869381  0.80031974    -0.63500
Mn795      Mn  0.03666633  0.96058507  0.74833038     1.10700
C796        C  0.49426940  0.90788902  0.81407905     0.99500
C797        C  0.99823161  0.91230161  0.67610366     0.99600
N798        N  0.43433096  0.51636438  0.71229161    -0.05700
N799        N  0.41745903  0.52719912  0.69115383    -0.61100
N800        N  0.43322000  0.98644653  0.77995634    -0.05100
N801        N  0.41741655  0.97610863  0.80223233    -0.57800
N802        N  0.43362645  0.51546941  0.78040592    -0.06400
N803        N  0.41799707  0.52536610  0.80298258    -0.60700
N804        N  0.43405654  0.98741443  0.71169778    -0.05400
N805        N  0.41695865  0.97796826  0.69005155    -0.57900
Mn806      Mn  0.45800422  0.54085491  0.74647379     1.20200
Mn807      Mn  0.45706152  0.96141397  0.74570830     1.10100
Cl808      Cl  0.99729276  0.50068128  0.74738947    -0.85800
C809        C  0.40682334  0.50304589  0.67730909     0.96500
C810        C  0.40803543  0.00058625  0.81653004     0.96300
N811        N  0.48461127  0.71487725  0.56148687    -0.06000
N812        N  0.47502638  0.69211152  0.57687191    -0.58100
N813        N  0.01254534  0.78335649  0.56269492    -0.05700
N814        N  0.02277158  0.80569093  0.57828602    -0.60200
N815        N  0.48347471  0.78296522  0.56340975    -0.05300
N816        N  0.47336166  0.80504080  0.57950666    -0.58100
N817        N  0.01371588  0.71520419  0.56089517    -0.04900
N818        N  0.02444078  0.69262202  0.57591405    -0.60600
C819        C  0.00002813  0.67825289  0.58571504     0.96200
C820        C  0.49812287  0.81915512  0.58864059     0.96000
N821        N  0.05947961  0.78650763  0.98338640    -0.06200
N822        N  0.07473473  0.80929268  0.97347168    -0.58700
N823        N  0.06204433  0.71786377  0.51085244    -0.04300
N824        N  0.07943011  0.69646675  0.52018414    -0.59900
N825        N  0.06141845  0.71847325  0.98179030    -0.06200
N826        N  0.07840934  0.69748562  0.97080100    -0.59000
N827        N  0.06015414  0.78572540  0.51245671    -0.03900
N828        N  0.07586065  0.80792241  0.52283301    -0.60000
Mn829      Mn  0.03783863  0.75047845  0.53745480     1.18400
C830        C  0.08480999  0.82259634  0.99832349     0.98300
C831        C  0.08947649  0.68380526  0.99500229     0.98900
N832        N  0.43324529  0.78353796  0.51569402    -0.06200
N833        N  0.41661986  0.80481240  0.52673821    -0.62500
N834        N  0.43331442  0.71656003  0.98483688    -0.05000
N835        N  0.41545806  0.69597209  0.97459742    -0.63200
N836        N  0.43378006  0.71605722  0.51391550    -0.05700
N837        N  0.41614362  0.69521980  0.52403841    -0.62800
N838        N  0.43273580  0.78421299  0.98661717    -0.04600
N839        N  0.41579287  0.80597533  0.97736651    -0.63500
Mn840      Mn  0.45818061  0.74928097  0.53939594     1.10700
C841        C  0.40591305  0.81879452  0.00255517     0.99500
C842        C  0.40496915  0.68276108  0.99928898     0.99600
N843        N  0.01073948  0.71848535  0.93359895    -0.05700
N844        N  0.02084136  0.69847243  0.91498092    -0.61100
N845        N  0.48050359  0.78554580  0.93549689    -0.05100
N846        N  0.46975684  0.80601666  0.91774537    -0.57800
N847        N  0.00959143  0.78583406  0.93488364    -0.06400
N848        N  0.01917194  0.80646875  0.91676598    -0.60700
N849        N  0.48160618  0.71813440  0.93411379    -0.05400
N850        N  0.47139210  0.69791962  0.91577853    -0.57900
Mn851      Mn  0.03598768  0.75230687  0.95785249     1.20200
Mn852      Mn  0.45638078  0.75109589  0.95973536     1.10100
Cl853      Cl  0.49709096  0.75071594  0.99857660    -0.85800
C854        C  0.99609477  0.68568127  0.90404073     0.96500
C855        C  0.49416167  0.81905686  0.90627556     0.96300
N856        N  0.28112605  0.93654441  0.98572866    -0.06000
N857        N  0.30291004  0.91942680  0.97665162    -0.58100
N858        N  0.21220894  0.93776557  0.51271408    -0.05700
N859        N  0.18961038  0.92238916  0.52286830    -0.60200
N860        N  0.21266900  0.93720786  0.98365741    -0.05300
N861        N  0.19032118  0.92139589  0.97348492    -0.58100
N862        N  0.28038295  0.93725695  0.51478943    -0.04900
N863        N  0.30155089  0.92059042  0.52601854    -0.60600
C864        C  0.31560506  0.90965467  0.00195977     0.96200
C865        C  0.17600873  0.91230852  0.99822032     0.96000
N866        N  0.21106498  0.51629547  0.55988862    -0.06200
N867        N  0.18965532  0.52652321  0.57684436    -0.58700
N868        N  0.27888381  0.98774871  0.56280119    -0.04300
N869        N  0.29990387  0.97811565  0.58055308    -0.59900
N870        N  0.27864804  0.51671898  0.56232967    -0.06200
N871        N  0.29944319  0.52738409  0.57976769    -0.59000
N872        N  0.21125898  0.98736373  0.56038686    -0.03900
N873        N  0.18997515  0.97728067  0.57754630    -0.60000
Mn874      Mn  0.24577656  0.96187336  0.53829475     1.18400
C875        C  0.17660531  0.50191215  0.58759019     0.98300
C876        C  0.31262442  0.00304730  0.59093657     0.98900
N877        N  0.21422354  0.98541639  0.93368860    -0.06200
N878        N  0.19166467  0.97562239  0.91786474    -0.62500
N879        N  0.28309415  0.51374798  0.93502871    -0.05000
N880        N  0.30512641  0.52374868  0.91875729    -0.63200
N881        N  0.28302284  0.98474754  0.93520891    -0.05700
N882        N  0.30514097  0.97451744  0.91897571    -0.62800
N883        N  0.21492623  0.51436323  0.93317074    -0.04600
N884        N  0.19309429  0.52480792  0.91695262    -0.63500
Mn885      Mn  0.24781615  0.96017199  0.95877038     1.10700
C886        C  0.17866974  0.50047368  0.90753002     0.99500
C887        C  0.31887354  0.99914143  0.90888864     0.99600
N888        N  0.28038728  0.56465743  0.51224330    -0.05700
N889        N  0.30093078  0.58232953  0.52290098    -0.61100
N890        N  0.21363937  0.56430807  0.98092016    -0.05100
N891        N  0.19256585  0.58124144  0.96991281    -0.57800
N892        N  0.21258548  0.56448830  0.50996181    -0.06400
N893        N  0.19083502  0.58145913  0.51928985    -0.60700
N894        N  0.28169431  0.56390291  0.98321261    -0.05400
N895        N  0.30323870  0.58101218  0.97352007    -0.57900
Mn896      Mn  0.24561710  0.54118512  0.53669739     1.20200
Mn897      Mn  0.24847172  0.53964822  0.95734548     1.10100
Cl898      Cl  0.24704817  0.00071239  0.99776717    -0.85800
C899        C  0.31511906  0.59229762  0.99853747     0.96500
C900        C  0.17835907  0.59172194  0.99413951     0.96300
C901        C  0.35437625  0.87936819  0.97653167     0.23700
C902        C  0.34042251  0.88814705  0.00292283    -0.24400
C903        C  0.34979527  0.87535043  0.52975810     0.18600
C904        C  0.37177518  0.85350196  0.52991836     0.23700
C905        C  0.38461422  0.84375342  0.00321982    -0.24300
C906        C  0.37604411  0.85746811  0.97666021     0.18600
F907        F  0.38839117  0.84956828  0.95046150    -0.14300
F908        F  0.34689543  0.89171250  0.95024684    -0.16600
F909        F  0.37990466  0.84150463  0.55619715    -0.16700
F910        F  0.33724851  0.88333769  0.55585263    -0.14300
C911        C  0.35786708  0.61828790  0.97473889     0.23700
C912        C  0.33873557  0.61481280  0.99905038    -0.24400
C913        C  0.34166783  0.63381357  0.52346023     0.18600
C914        C  0.36327712  0.65580290  0.52356077     0.23700
C915        C  0.38241301  0.65925132  0.99927031    -0.24300
C916        C  0.37936512  0.64043898  0.97476267     0.18600
F917        F  0.39743648  0.64321465  0.95091878    -0.14300
F918        F  0.35607914  0.59999586  0.95105809    -0.16600
F919        F  0.36461235  0.67447954  0.54697984    -0.16700
F920        F  0.32294111  0.63188537  0.54688318    -0.14300
C921        C  0.11929213  0.85674859  0.02517716     0.23700
C922        C  0.10554496  0.84803804  0.99864825    -0.24400
C923        C  0.11312690  0.86287285  0.97232529     0.18600
C924        C  0.13528516  0.88449741  0.97225857     0.23700
C925        C  0.15030008  0.89184893  0.99853275    -0.24300
C926        C  0.14132748  0.87834730  0.02512360     0.18600
F927        F  0.15458879  0.88513064  0.55116867    -0.14300
F928        F  0.11226801  0.84368280  0.55126811    -0.16600
F929        F  0.14220691  0.89793692  0.94633448    -0.16700
F930        F  0.09945146  0.85621420  0.94645692    -0.14300
C931        C  0.12471170  0.65058732  0.96756138     0.23700
C932        C  0.11087423  0.65899327  0.99419884    -0.24400
C933        C  0.11820993  0.64380762  0.52032991     0.18600
C934        C  0.13919589  0.62122059  0.51996831     0.23700
C935        C  0.15399892  0.61366721  0.99361851    -0.24300
C936        C  0.14618483  0.62833278  0.96730934     0.18600
F937        F  0.15982819  0.62179814  0.94136611    -0.14300
F938        F  0.11814748  0.66440160  0.94176158    -0.16600
F939        F  0.14502960  0.60685565  0.54564825    -0.16700
F940        F  0.10519700  0.65079818  0.54647943    -0.14300
C941        C  0.37352676  0.02655332  0.85128254     0.23700
C942        C  0.38754111  0.00038859  0.84226528    -0.24400
C943        C  0.38061613  0.97399027  0.85720483     0.18600
C944        C  0.35893979  0.97357023  0.87945804     0.23700
C945        C  0.34379619  0.99955468  0.88732429    -0.24300
C946        C  0.35193022  0.02614072  0.87339367     0.18600
F947        F  0.33826641  0.05186869  0.88029247    -0.14300
F948        F  0.37987589  0.05263899  0.83802690    -0.16600
F949        F  0.35264655  0.94763587  0.89303980    -0.16700
F950        F  0.39463974  0.94846094  0.85020960    -0.14300
C951        C  0.14925225  0.52566137  0.86800573     0.23700
C952        C  0.15328399  0.50121984  0.88673868    -0.24400
C953        C  0.13335156  0.97751139  0.88472252     0.18600
C954        C  0.11068505  0.97766856  0.86351121     0.23700
C955        C  0.10768578  0.00146943  0.84377121    -0.24300
C956        C  0.12687406  0.52569163  0.84670644     0.18600
F957        F  0.12497503  0.54904808  0.82803832    -0.14300
F958        F  0.16780292  0.54916409  0.86930337    -0.16600
F959        F  0.09154266  0.95464875  0.86246627    -0.16700
F960        F  0.13563956  0.95422677  0.90342210    -0.14300
C961        C  0.11688016  0.47537434  0.63981225     0.23700
C962        C  0.11186217  0.50070840  0.65701735    -0.24400
C963        C  0.12774463  0.52661749  0.65061215     0.18600
C964        C  0.14830708  0.52716154  0.62764397     0.23700
C965        C  0.15339733  0.50184536  0.61049903    -0.24300
C966        C  0.13735455  0.47598542  0.61666543     0.18600
F967        F  0.14130061  0.95127084  0.60021957    -0.14300
F968        F  0.10184110  0.95003239  0.64513642    -0.16600
F969        F  0.16400170  0.55225821  0.62302311    -0.16700
F970        F  0.12419578  0.55132337  0.66715889    -0.14300
C971        C  0.36814487  0.52978333  0.64781604     0.23700
C972        C  0.38420250  0.50381886  0.65368730    -0.24400
C973        C  0.37720574  0.97802750  0.63792956     0.18000
C974        C  0.35401847  0.97785599  0.61757905     0.23700
C975        C  0.33749900  0.00356391  0.61218300    -0.24300
C976        C  0.34494094  0.52962437  0.62738214     0.18600
F977        F  0.32922083  0.55479286  0.62326436    -0.14300
F978        F  0.37418843  0.55521203  0.66243617    -0.16600
F979        F  0.34785626  0.95237449  0.60314047    -0.16700
F980        F  0.39281845  0.95282844  0.64212846    -0.14300
C981        C  0.02197546  0.64638565  0.87465289     0.23700
C982        C  0.99610422  0.66255885  0.88079486    -0.24400
C983        C  0.47046681  0.65677114  0.86407896     0.18600
C984        C  0.47062490  0.63510354  0.84202984     0.23700
C985        C  0.49637773  0.61857354  0.83626419    -0.24300
C986        C  0.02209743  0.62465258  0.85271195     0.18600
F987        F  0.04744199  0.60932838  0.84788061    -0.14300
F988        F  0.04722008  0.65125413  0.89014372    -0.16600
F989        F  0.44568030  0.63088982  0.82586500    -0.16700
F990        F  0.44534389  0.67259400  0.86845115    -0.14300
C991        C  0.02048966  0.85177216  0.87024327     0.23700
C992        C  0.49381855  0.84243902  0.88334408    -0.24400
C993        C  0.46707900  0.85526334  0.87379482     0.18600
C994        C  0.46709423  0.87682686  0.85159505     0.23700
C995        C  0.49382744  0.88580329  0.83827494    -0.24300
C996        C  0.02048204  0.87305719  0.84802386     0.18600
F997        F  0.04681928  0.88079295  0.83582098    -0.14300
F998        F  0.04684987  0.84005050  0.87851404    -0.16600
F999        F  0.44090174  0.88891889  0.84331084    -0.16700
F1000       F  0.44082725  0.84699653  0.88584749    -0.14300
C1001       C  0.47180357  0.88178253  0.63783528     0.23700
C1002       C  0.99847708  0.89113197  0.65098943    -0.24400
C1003       C  0.02522346  0.87866829  0.64102058     0.18600
C1004       C  0.02515475  0.85604245  0.62002973     0.23700
C1005       C  0.49832821  0.84520228  0.60851720    -0.24300
C1006       C  0.47171357  0.85897874  0.61699612     0.18600
F1007       F  0.44540255  0.85015904  0.60552876    -0.14300
F1008       F  0.44557936  0.89426391  0.64545535    -0.16600
F1009       F  0.05147623  0.84421719  0.61172443    -0.16700
F1010       F  0.05159364  0.88772179  0.65211554    -0.14300
C1011       C  0.47349804  0.61790260  0.63736536     0.23700
C1012       C  0.00022732  0.60736250  0.64933792    -0.24400
C1013       C  0.02709378  0.61773646  0.63737800     0.18600
C1014       C  0.02716556  0.64000714  0.61587971     0.23700
C1015       C  0.00035523  0.65214720  0.60562125    -0.24300
C1016       C  0.47356328  0.63993193  0.61580289     0.18600
F1017       F  0.44712489  0.64985583  0.60563947    -0.14300
F1018       F  0.44700448  0.60763438  0.64710628    -0.16600
F1019       F  0.05357515  0.65019018  0.60583606    -0.16700
F1020       F  0.05342062  0.60697931  0.64698175    -0.14300
N1021       N  0.56219717  0.48561913  0.21559725    -0.06000
N1022       N  0.57959246  0.47553684  0.19442981    -0.58100
N1023       N  0.55961846  0.01478509  0.28345140    -0.05700
N1024       N  0.57591305  0.02516662  0.30525562    -0.60200
N1025       N  0.55942743  0.48573989  0.28384717    -0.05300
N1026       N  0.57558763  0.47589063  0.30615059    -0.58100
N1027       N  0.56231779  0.01457743  0.21576880    -0.04900
N1028       N  0.57980866  0.02482151  0.19485368    -0.60600
C1029       C  0.59041301  0.00030537  0.18164698     0.96200
C1030       C  0.58566896  0.50075534  0.31941166     0.96000
N1031       N  0.98250758  0.06547435  0.28035159    -0.06200
N1032       N  0.97204161  0.08429990  0.30001045    -0.58700
N1033       N  0.51339015  0.06322881  0.21284536    -0.04300
N1034       N  0.52417415  0.07797868  0.19005591    -0.59900
N1035       N  0.98429683  0.06355109  0.21232936    -0.06200
N1036       N  0.97474955  0.07844299  0.18919325    -0.59000
N1037       N  0.51157242  0.06514804  0.28102818    -0.03900
N1038       N  0.52145541  0.08363434  0.30126152    -0.60000
Mn1039     Mn  0.53736963  0.04002564  0.24835331     1.18400
C1040       C  0.99657735  0.09540643  0.31306621     0.98300
C1041       C  0.49979542  0.08732249  0.17535796     0.98900
N1042       N  0.50994886  0.43630523  0.28076061    -0.06200
N1043       N  0.51935365  0.41868928  0.30190044    -0.62500
N1044       N  0.98304926  0.43815081  0.21175333    -0.05000
N1045       N  0.97330403  0.42250854  0.18917787    -0.63200
N1046       N  0.51215247  0.43760255  0.21272354    -0.05700
N1047       N  0.52270167  0.42153910  0.19075573    -0.62800
N1048       N  0.98088638  0.43630966  0.27976880    -0.04600
N1049       N  0.96994831  0.41868535  0.30031308    -0.63500
Mn1050     Mn  0.53665567  0.46057106  0.24833763     1.10700
C1051       C  0.99424176  0.40787426  0.31407242     0.99500
C1052       C  0.49823826  0.41231553  0.17609062     0.99600
N1053       N  0.93432497  0.01634607  0.21229787    -0.05700
N1054       N  0.91745641  0.02717917  0.19115709    -0.61100
N1055       N  0.93321535  0.48646379  0.27994596    -0.05100
N1056       N  0.91741504  0.47613244  0.30222711    -0.57800
N1057       N  0.93361874  0.01544691  0.28041344    -0.06400
N1058       N  0.91798105  0.02533498  0.30298824    -0.60700
N1059       N  0.93406393  0.48743132  0.21168612    -0.05400
N1060       N  0.91696389  0.47798883  0.19004027    -0.57900
Mn1061     Mn  0.95798985  0.04084284  0.24648071     1.20200
Mn1062     Mn  0.95705410  0.46142151  0.24569989     1.10100
Cl1063     Cl  0.49729079  0.00068115  0.24739251    -0.85800
C1064       C  0.90682868  0.00302568  0.17730749     0.96500
C1065       C  0.90804419  0.50061391  0.31652556     0.96300
N1066       N  0.98462883  0.21487231  0.06149433    -0.06000
N1067       N  0.97503911  0.19210345  0.07687119    -0.58100
N1068       N  0.51257054  0.28335115  0.06270345    -0.05700
N1069       N  0.52279925  0.30568817  0.07829008    -0.60200
N1070       N  0.98349964  0.28296174  0.06341935    -0.05300
N1071       N  0.97338926  0.30504083  0.07951239    -0.58100
N1072       N  0.51373384  0.21519467  0.06090223    -0.04900
N1073       N  0.52445384  0.19260489  0.07591447    -0.60600
C1074       C  0.50003746  0.17823694  0.08571048     0.96200
C1075       C  0.99815152  0.31915555  0.08864330     0.96000
N1076       N  0.55949498  0.28649198  0.48339658    -0.06200
N1077       N  0.57475240  0.30927461  0.47347997    -0.58700
N1078       N  0.56205628  0.21785732  0.01085107    -0.04300
N1079       N  0.57943487  0.19645359  0.02017972    -0.59900
N1080       N  0.56141691  0.21845564  0.48179744    -0.06200
N1081       N  0.57839701  0.19746043  0.47080564    -0.59000
N1082       N  0.56017359  0.28572098  0.01245854    -0.03900
N1083       N  0.57588326  0.30791790  0.02283154    -0.60000
Mn1084     Mn  0.53785831  0.25047178  0.03745943     1.18400
C1085       C  0.58483406  0.32257711  0.49832962     0.98300
C1086       C  0.58945992  0.18377336  0.49500518     0.98900
N1087       N  0.93325972  0.28353382  0.01570870    -0.06200
N1088       N  0.91663328  0.30480756  0.02675311    -0.62500
N1089       N  0.93331834  0.21656388  0.48485193    -0.05000
N1090       N  0.91546404  0.19597423  0.47461307    -0.63200
N1091       N  0.93379486  0.21605284  0.01393069    -0.05700
N1092       N  0.91615882  0.19521530  0.02405462    -0.62800
N1093       N  0.93274730  0.28421665  0.48663089    -0.04600
N1094       N  0.91580731  0.30598030  0.47737851    -0.63500
Mn1095     Mn  0.95819928  0.24927770  0.03940809     1.10700
C1096       C  0.90593046  0.31880347  0.50256574     0.99500
C1097       C  0.90497581  0.18276332  0.49930489     0.99600
N1098       N  0.51073812  0.21848088  0.43360807    -0.05700
N1099       N  0.52083639  0.19846765  0.41498835    -0.61100
N1100       N  0.98050795  0.28554414  0.43551206    -0.05100
N1101       N  0.96975688  0.30601361  0.41776177    -0.57800
N1102       N  0.50959553  0.28583242  0.43489434    -0.06400
N1103       N  0.51917122  0.30646689  0.41677317    -0.60700
N1104       N  0.98160528  0.21813275  0.43412560    -0.05400
N1105       N  0.97138759  0.19791987  0.41579008    -0.57900
Mn1106     Mn  0.53599243  0.25229796  0.45786168     1.20200
Mn1107     Mn  0.95638624  0.25109641  0.45975018     1.10100
Cl1108     Cl  0.99709920  0.25071196  0.49858866    -0.85800
C1109       C  0.49608762  0.18567916  0.40404962     0.96500
C1110       C  0.99415820  0.31905412  0.40628650     0.96300
N1111       N  0.78115191  0.43655504  0.48571856    -0.06000
N1112       N  0.80294068  0.41944227  0.47664308    -0.58100
N1113       N  0.71224291  0.43774981  0.01270183    -0.05700
N1114       N  0.68964442  0.42237185  0.02285391    -0.60200
N1115       N  0.71269300  0.43719567  0.48364921    -0.05300
N1116       N  0.69034710  0.42138050  0.47347735    -0.58100
N1117       N  0.78041771  0.43727261  0.01478057    -0.04900
N1118       N  0.80158701  0.42061118  0.02601341    -0.60600
C1119       C  0.81563579  0.40967379  0.50195275     0.96200
C1120       C  0.67603353  0.41229366  0.49821270     0.96000
N1121       N  0.71105912  0.01630685  0.05989094    -0.06200
N1122       N  0.68964669  0.02654103  0.07683930    -0.58700
N1123       N  0.77889502  0.48775768  0.06279084    -0.04300
N1124       N  0.79991581  0.47812932  0.08054397    -0.59900
N1125       N  0.77864237  0.01671288  0.06234269    -0.06200
N1126       N  0.79944136  0.02737473  0.07977793    -0.59000
N1127       N  0.71127341  0.48734339  0.06038367    -0.03900
N1128       N  0.69000429  0.47724983  0.07755581    -0.60000
Mn1129     Mn  0.74579941  0.46187091  0.03828452     1.18400
C1130       C  0.67658763  0.00193370  0.08758220     0.98300
C1131       C  0.81262780  0.50306331  0.09093114     0.98900
N1132       N  0.71423452  0.48540321  0.43368166    -0.06200
N1133       N  0.69168380  0.47559848  0.41785345    -0.62500
N1134       N  0.78309830  0.01372487  0.43504071    -0.05000
N1135       N  0.80513537  0.02371366  0.41877006    -0.63200
N1136       N  0.78303147  0.48476140  0.43519887    -0.05700
N1137       N  0.80515434  0.47453923  0.41896701    -0.62800
N1138       N  0.71493136  0.01437949  0.43317517    -0.04600
N1139       N  0.69310625  0.02483678  0.41695549    -0.63500
Mn1140     Mn  0.74783448  0.46017180  0.45876172     1.10700
C1141       C  0.67866457  0.00051068  0.40753849     0.99500
C1142       C  0.81887718  0.49916785  0.40887803     0.99600
N1143       N  0.78040050  0.06464775  0.01225631    -0.05700
N1144       N  0.80094492  0.08231746  0.02291640    -0.61100
N1145       N  0.71366541  0.06432091  0.48092216    -0.05100
N1146       N  0.69258738  0.08124761  0.46991263    -0.57800
N1147       N  0.71259893  0.06449616  0.00996480    -0.06400
N1148       N  0.69084358  0.08146188  0.01928959    -0.60700
N1149       N  0.78172061  0.06388646  0.48322287    -0.05400
N1150       N  0.80326740  0.08099413  0.47353301    -0.57900
Mn1151     Mn  0.74562089  0.04118617  0.03670539     1.20200
Mn1152     Mn  0.74848886  0.03964559  0.45735239     1.10100
Cl1153     Cl  0.74705283  0.50071255  0.49775825    -0.85800
C1154       C  0.81514567  0.09227944  0.49855167     0.96500
C1155       C  0.67837684  0.09172516  0.49413851     0.96300
C1156       C  0.85442043  0.37939620  0.47653414     0.23700
C1157       C  0.84045238  0.38816622  0.50292048    -0.24400
C1158       C  0.84979818  0.37534050  0.02976218     0.18600
C1159       C  0.87176559  0.35347985  0.02992637     0.23700
C1160       C  0.88463603  0.34376568  0.50322700    -0.24300
C1161       C  0.87608479  0.35749246  0.47666724     0.18600
F1162       F  0.88844749  0.34960125  0.45047325    -0.14300
F1163       F  0.84695723  0.39175295  0.45025008    -0.16600
F1164       F  0.87985416  0.34144825  0.05620204    -0.16700
F1165       F  0.83722569  0.38330862  0.05585025    -0.14300
C1166       C  0.85787106  0.11829657  0.47474336     0.23700
C1167       C  0.83875903  0.11479824  0.49906671    -0.24400
C1168       C  0.84170427  0.13378275  0.02349080     0.18600
C1169       C  0.86330981  0.15577619  0.02358975     0.23700
C1170       C  0.88242472  0.15924858  0.49928614    -0.24300
C1171       C  0.87936280  0.14045321  0.47476700     0.18600
F1172       F  0.89741329  0.14325146  0.45090998    -0.14300
F1173       F  0.85606905  0.10002321  0.45104916    -0.16600
F1174       F  0.86465853  0.17443782  0.04702003    -0.16700
F1175       F  0.82299811  0.13183399  0.04692843    -0.14300
C1176       C  0.61928723  0.35676470  0.52518104     0.23700
C1177       C  0.60556729  0.34802201  0.49864859    -0.24400
C1178       C  0.61317288  0.36283003  0.47231685     0.18600
C1179       C  0.63533100  0.38445476  0.47224654     0.23700
C1180       C  0.65032271  0.39183500  0.49852587    -0.24300
C1181       C  0.64132284  0.37836438  0.52512394     0.18600
F1182       F  0.65456105  0.38518143  0.05116532    -0.14300
F1183       F  0.61222793  0.34374492  0.05127119    -0.16600
F1184       F  0.64227591  0.39786522  0.44631349    -0.16700
F1185       F  0.59952177  0.35614433  0.44644274    -0.14300
C1186       C  0.62468337  0.15054731  0.46755783     0.23700
C1187       C  0.61085508  0.15895855  0.49419860    -0.24400
C1188       C  0.61821235  0.14379714  0.02032579     0.18600
C1189       C  0.63920188  0.12121405  0.01996535     0.23700
C1190       C  0.65400173  0.11365352  0.49361676    -0.24300
C1191       C  0.64616884  0.12830441  0.46730530     0.18600
F1192       F  0.65980442  0.12176602  0.44135890    -0.14300
F1193       F  0.61809769  0.16434499  0.44175469    -0.16600
F1194       F  0.64504740  0.10686037  0.04564898    -0.16700
F1195       F  0.60521011  0.15079664  0.04647821    -0.14300
C1196       C  0.87353282  0.52658599  0.35127404     0.23700
C1197       C  0.88755643  0.50042272  0.34226617    -0.24400
C1198       C  0.88064393  0.47402854  0.35721798     0.18600
C1199       C  0.85896346  0.47360727  0.37946674     0.23700
C1200       C  0.84380499  0.49958727  0.38731901    -0.24300
C1201       C  0.85193178  0.52617245  0.37338182     0.18600
F1202       F  0.83825632  0.55189704  0.38027028    -0.14300
F1203       F  0.87987694  0.55266969  0.33801189    -0.16600
F1204       F  0.85268058  0.44767531  0.39305781    -0.16700
F1205       F  0.89468528  0.44850433  0.35023965    -0.14300
C1206       C  0.64929211  0.02568484  0.36797140     0.23700
C1207       C  0.65328029  0.00126849  0.38674670    -0.24400
C1208       C  0.63337680  0.47745999  0.38470072     0.18600
C1209       C  0.61070558  0.47761598  0.36349476     0.23700
C1210       C  0.60769017  0.50142577  0.34376808    -0.24300
C1211       C  0.62691569  0.02571514  0.34666883     0.18600
F1212       F  0.62505569  0.04904158  0.32795891    -0.14300
F1213       F  0.66788468  0.04915701  0.36923074    -0.16600
F1214       F  0.59157548  0.45458624  0.36244173    -0.16700
F1215       F  0.63568111  0.45416702  0.40338788    -0.14300
C1216       C  0.61686132  0.97540373  0.13980304     0.23700
C1217       C  0.61185066  0.00073583  0.15701258    -0.24400
C1218       C  0.62773364  0.02664454  0.15060691     0.18600
C1219       C  0.64829255  0.02718841  0.12763525     0.23700
C1220       C  0.65337701  0.00187267  0.11048767    -0.24300
C1221       C  0.63733026  0.97601511  0.11665231     0.18600
F1222       F  0.64141191  0.45118929  0.10032515    -0.14300
F1223       F  0.60194350  0.44995953  0.14523305    -0.16600
F1224       F  0.66399090  0.05228293  0.12301495    -0.16700
F1225       F  0.62419013  0.05134864  0.16715754    -0.14300
C1226       C  0.86814903  0.02976480  0.14781957     0.23700
C1227       C  0.88420976  0.00380049  0.15368360    -0.24400
C1228       C  0.87720488  0.47804645  0.13793049     0.18000
C1229       C  0.85401327  0.47787195  0.11758585     0.23700
C1230       C  0.83750114  0.50358249  0.11217943    -0.24300
C1231       C  0.84494140  0.02960775  0.12739027     0.18600
F1232       F  0.82921659  0.05477509  0.12328300    -0.14300
F1233       F  0.87419292  0.05519169  0.16244274    -0.16600
F1234       F  0.84783867  0.45238341  0.10316506    -0.16700
F1235       F  0.89281233  0.45284511  0.14213514    -0.14300
C1236       C  0.52196499  0.14638840  0.37465152     0.23700
C1237       C  0.49609305  0.16255684  0.38080291    -0.24400
C1238       C  0.97045144  0.15676482  0.36409504     0.18600
C1239       C  0.97060506  0.13509524  0.34204727     0.23700
C1240       C  0.99635911  0.11857030  0.33627218    -0.24300
C1241       C  0.52208327  0.12465522  0.35271065     0.18600
F1242       F  0.54742974  0.10933712  0.34786969    -0.14300
F1243       F  0.54721470  0.15126212  0.39013246    -0.16600
F1244       F  0.94565480  0.13087448  0.32589311    -0.16700
F1245       F  0.94532809  0.17258505  0.36847418    -0.14300
C1246       C  0.52047075  0.35174913  0.37022548     0.23700
C1247       C  0.99380671  0.34243168  0.38334904    -0.24400
C1248       C  0.96706520  0.35526472  0.37381428     0.18600
C1249       C  0.96707362  0.37682314  0.35160788     0.23700
C1250       C  0.99380151  0.38578651  0.33826822    -0.24300
C1251       C  0.52045628  0.37302883  0.34800099     0.18600
F1252       F  0.54678851  0.38074705  0.33577631    -0.14300
F1253       F  0.54683126  0.34001549  0.37847790    -0.16600
F1254       F  0.94088089  0.38892438  0.34333780    -0.16700
F1255       F  0.94081876  0.34701226  0.38588854    -0.14300
C1256       C  0.97182418  0.38179742  0.13781362     0.23700
C1257       C  0.49849323  0.39114862  0.15097387    -0.24400
C1258       C  0.52524323  0.37868449  0.14101311     0.18600
C1259       C  0.52518020  0.35605220  0.12002813     0.23700
C1260       C  0.99835611  0.34520914  0.10851201    -0.24300
C1261       C  0.97173994  0.35898909  0.11698007     0.18600
F1262       F  0.94543168  0.35016708  0.10550870    -0.14300
F1263       F  0.94559801  0.39428015  0.14542405    -0.16600
F1264       F  0.55150334  0.34422265  0.11173382    -0.16700
F1265       F  0.55161052  0.38774316  0.15211113    -0.14300
C1266       C  0.97348182  0.11789071  0.13735480     0.23700
C1267       C  0.50020744  0.10734009  0.14932609    -0.24400
C1268       C  0.52707780  0.11769709  0.13735936     0.18600
C1269       C  0.52715911  0.13996771  0.11586098     0.23700
C1270       C  0.50035431  0.15212413  0.10560862    -0.24300
C1271       C  0.97355636  0.13991882  0.11579057     0.18600
F1272       F  0.94712190  0.14985241  0.10562647    -0.14300
F1273       F  0.94698458  0.10763622  0.14710041    -0.16600
F1274       F  0.55357260  0.15013319  0.10580987    -0.16700
F1275       F  0.55340009  0.10692263  0.14695626    -0.14300
N1276       N  0.56219831  0.48562833  0.71558779    -0.06000
N1277       N  0.57959568  0.47554818  0.69442107    -0.58100
N1278       N  0.55961708  0.01478334  0.78344740    -0.05700
N1279       N  0.57590720  0.02516634  0.80525429    -0.60200
N1280       N  0.55943187  0.48574215  0.78383725    -0.05300
N1281       N  0.57559193  0.47588955  0.80613917    -0.58100
N1282       N  0.56231032  0.01457178  0.71576221    -0.04900
N1283       N  0.57979451  0.02481611  0.69484171    -0.60600
C1284       C  0.59039583  0.00030024  0.68163227     0.96200
C1285       C  0.58567405  0.50075200  0.81940365     0.96000
N1286       N  0.98250762  0.06547041  0.78034934    -0.06200
N1287       N  0.97204344  0.08429472  0.80001038    -0.58700
N1288       N  0.51338351  0.06322205  0.71284003    -0.04300
N1289       N  0.52416534  0.07797131  0.69004907    -0.59900
N1290       N  0.98428975  0.06354385  0.71232674    -0.06200
N1291       N  0.97473940  0.07843457  0.68919109    -0.59000
N1292       N  0.51157136  0.06514427  0.78102342    -0.03900
N1293       N  0.52145609  0.08362924  0.80125732    -0.60000
Mn1294     Mn  0.53736587  0.04002119  0.74834810     1.18400
C1295       C  0.99658039  0.09540080  0.81306433     0.98300
C1296       C  0.49978508  0.08731387  0.67535266     0.98900
N1297       N  0.50995337  0.43630662  0.78074919    -0.06200
N1298       N  0.51935877  0.41868033  0.80188018    -0.62500
N1299       N  0.98304841  0.43816078  0.71174661    -0.05000
N1300       N  0.97330041  0.42251741  0.68917302    -0.63200
N1301       N  0.51215123  0.43761209  0.71271419    -0.05700
N1302       N  0.52269809  0.42154778  0.69074612    -0.62800
N1303       N  0.98089237  0.43631347  0.77975949    -0.04600
N1304       N  0.96995486  0.41868036  0.80029619    -0.63500
Mn1305     Mn  0.53665790  0.46057710  0.74832728     1.10700
C1306       C  0.99424855  0.40786091  0.81404763     0.99500
C1307       C  0.49823317  0.41232347  0.67608418     0.99600
N1308       N  0.93431757  0.01633866  0.71230179    -0.05700
N1309       N  0.91744725  0.02717043  0.69116181    -0.61100
N1310       N  0.93322238  0.48647085  0.77994835    -0.05100
N1311       N  0.91741963  0.47613962  0.80222777    -0.57800
N1312       N  0.93361765  0.01544451  0.78041686    -0.06400
N1313       N  0.91798125  0.02533440  0.80299161    -0.60700
N1314       N  0.93406325  0.48744048  0.71168990    -0.05400
N1315       N  0.91696025  0.47799745  0.69004700    -0.57900
Mn1316     Mn  0.95798615  0.04083767  0.74648125     1.20200
Mn1317     Mn  0.95705732  0.46142966  0.74569788     1.10100
Cl1318     Cl  0.49728695  0.00067641  0.74739225    -0.85800
C1319       C  0.90681839  0.00301609  0.67731431     0.96500
C1320       C  0.90804811  0.50062125  0.81652581     0.96300
N1321       N  0.98461935  0.21487428  0.56150097    -0.06000
N1322       N  0.97502695  0.19210433  0.57687448    -0.58100
N1323       N  0.51256582  0.28335202  0.56270863    -0.05700
N1324       N  0.52279411  0.30569162  0.57829201    -0.60200
N1325       N  0.98349454  0.28296325  0.56342373    -0.05300
N1326       N  0.97338377  0.30504542  0.57951217    -0.58100
N1327       N  0.51372536  0.21519484  0.56090976    -0.04900
N1328       N  0.52444325  0.19260261  0.57591981    -0.60600
C1329       C  0.50002540  0.17823564  0.58571362     0.96200
C1330       C  0.99814567  0.31916094  0.58864172     0.96000
N1331       N  0.55949484  0.28649632  0.98338755    -0.06200
N1332       N  0.57475136  0.30927939  0.97347098    -0.58700
N1333       N  0.56205077  0.21785154  0.51086047    -0.04300
N1334       N  0.57942649  0.19644481  0.52018874    -0.59900
N1335       N  0.56142238  0.21846097  0.98178802    -0.06200
N1336       N  0.57840559  0.19746816  0.97079657    -0.59000
N1337       N  0.56017328  0.28571695  0.51246744    -0.03900
N1338       N  0.57588345  0.30791372  0.52284057    -0.60000
Mn1339     Mn  0.53785388  0.25046957  0.53746781     1.18400
C1340       C  0.58483294  0.32258189  0.99832074     0.98300
C1341       C  0.58947024  0.18378337  0.99499662     0.98900
N1342       N  0.93325646  0.28353918  0.51571414    -0.06200
N1343       N  0.91663345  0.30481670  0.52675654    -0.62500
N1344       N  0.93332396  0.21656236  0.98484483    -0.05000
N1345       N  0.91546608  0.19597604  0.97460584    -0.63200
N1346       N  0.93378783  0.21605600  0.51393762    -0.05700
N1347       N  0.91615450  0.19521622  0.52406196    -0.62800
N1348       N  0.93274971  0.28421339  0.98662540    -0.04600
N1349       N  0.91580572  0.30597478  0.97737497    -0.63500
Mn1350     Mn  0.95819287  0.24928082  0.53941426     1.10700
C1351       C  0.90592755  0.31879423  0.00256377     0.99500
C1352       C  0.90497711  0.18276535  0.99929736     0.99600
N1353       N  0.51074235  0.21848176  0.93359959    -0.05700
N1354       N  0.52084097  0.19846784  0.91498068    -0.61100
N1355       N  0.98051014  0.28554323  0.93550125    -0.05100
N1356       N  0.96975903  0.30600549  0.91774252    -0.57800
N1357       N  0.50959693  0.28583194  0.93488399    -0.06400
N1358       N  0.51917262  0.30646001  0.91675532    -0.60700
N1359       N  0.98161061  0.21813247  0.93411791    -0.05400
N1360       N  0.97139345  0.19791787  0.91578392    -0.57900
Mn1361     Mn  0.53599511  0.25230055  0.95785263     1.20200
Mn1362     Mn  0.95639027  0.25109536  0.95974264     1.10100
Cl1363     Cl  0.99710369  0.25071263  0.99858070    -0.85800
C1364       C  0.49609243  0.18567765  0.90404350     0.96500
C1365       C  0.99416050  0.31904181  0.90626226     0.96300
N1366       N  0.78116273  0.43655648  0.98571705    -0.06000
N1367       N  0.80295274  0.41944428  0.97664305    -0.58100
N1368       N  0.71223345  0.43775946  0.51270768    -0.05700
N1369       N  0.68963439  0.42238299  0.52286130    -0.60200
N1370       N  0.71270407  0.43718697  0.98364350    -0.05300
N1371       N  0.69035953  0.42137093  0.97346981    -0.58100
N1372       N  0.78040982  0.43727280  0.51478189    -0.04900
N1373       N  0.80158070  0.42061190  0.52601347    -0.60600
C1374       C  0.81564505  0.40967462  0.00195377     0.96200
C1375       C  0.67604565  0.41228267  0.99820443     0.96000
N1376       N  0.71105490  0.01630181  0.55988853    -0.06200
N1377       N  0.68963840  0.02653598  0.57683174    -0.58700
N1378       N  0.77889766  0.48776090  0.56279031    -0.04300
N1379       N  0.79991643  0.47813177  0.58054558    -0.59900
N1380       N  0.77863941  0.01670732  0.56234159    -0.06200
N1381       N  0.79943960  0.02736864  0.57977563    -0.59000
N1382       N  0.71127595  0.48735676  0.56038545    -0.03900
N1383       N  0.69000518  0.47726695  0.57755702    -0.60000
Mn1384     Mn  0.74579642  0.46187728  0.53828690     1.18400
C1385       C  0.67657645  0.00192894  0.58757196     0.98300
C1386       C  0.81263005  0.50306559  0.59093158     0.98900
N1387       N  0.71424002  0.48539671  0.93367787    -0.06200
N1388       N  0.69169156  0.47558970  0.91784759    -0.62500
N1389       N  0.78309614  0.01372923  0.93504027    -0.05000
N1390       N  0.80513407  0.02371881  0.91877100    -0.63200
N1391       N  0.78303654  0.48476545  0.93519924    -0.05700
N1392       N  0.80515979  0.47454636  0.91896654    -0.62800
N1393       N  0.71492841  0.01438249  0.93317644    -0.04600
N1394       N  0.69310013  0.02483993  0.91696084    -0.63500
Mn1395     Mn  0.74784291  0.46016947  0.95875906     1.10700
C1396       C  0.67865655  0.00051416  0.90754555     0.99500
C1397       C  0.81887901  0.49917634  0.90887662     0.99600
N1398       N  0.78039945  0.06464358  0.51225808    -0.05700
N1399       N  0.80094388  0.08231254  0.52291982    -0.61100
N1400       N  0.71366589  0.06432340  0.98092236    -0.05100
N1401       N  0.69258928  0.08125076  0.96991224    -0.57800
N1402       N  0.71259771  0.06449222  0.50996437    -0.06400
N1403       N  0.69084091  0.08145588  0.51928998    -0.60700
N1404       N  0.78172011  0.06388993  0.98322092    -0.05400
N1405       N  0.80326596  0.08099777  0.97352952    -0.57900
Mn1406     Mn  0.74561855  0.04118136  0.53670500     1.20200
Mn1407     Mn  0.74848744  0.03964868  0.95735232     1.10100
Cl1408     Cl  0.74705246  0.50070843  0.99775770    -0.85800
C1409       C  0.81514522  0.09228402  0.99854723     0.96500
C1410       C  0.67837999  0.09173066  0.99413758     0.96300
C1411       C  0.85445302  0.37942097  0.97654240     0.23700
C1412       C  0.84045896  0.38816471  0.00292370    -0.24400
C1413       C  0.84982155  0.37537195  0.52976294     0.18600
C1414       C  0.87179396  0.35351586  0.52992790     0.23700
C1415       C  0.88463424  0.34375666  0.00322841    -0.24300
C1416       C  0.87611326  0.35751299  0.97667441     0.18600
F1417       F  0.88850457  0.34964893  0.95048564    -0.14300
F1418       F  0.84702175  0.39181082  0.95026491    -0.16600
F1419       F  0.87991557  0.34151722  0.55620849    -0.16700
F1420       F  0.83727538  0.38336641  0.55585553    -0.14300
C1421       C  0.85787027  0.11830009  0.97473732     0.23700
C1422       C  0.83875764  0.11480355  0.99906044    -0.24400
C1423       C  0.84170726  0.13377494  0.52349889     0.18600
C1424       C  0.86331287  0.15576841  0.52359882     0.23700
C1425       C  0.88242354  0.15925332  0.99927820    -0.24300
C1426       C  0.87936212  0.14045658  0.97476009     0.18600
F1427       F  0.89741358  0.14325300  0.95090359    -0.14300
F1428       F  0.85606925  0.10002478  0.95104457    -0.16600
F1429       F  0.86466351  0.17442703  0.54703142    -0.16700
F1430       F  0.82300240  0.13182404  0.54693738    -0.14300
C1431       C  0.61929220  0.35676229  0.02517178     0.23700
C1432       C  0.60556873  0.34802418  0.99863971    -0.24400
C1433       C  0.61317513  0.36283240  0.97230836     0.18600
C1434       C  0.63533829  0.38445188  0.97223768     0.23700
C1435       C  0.65033302  0.39182712  0.99851659    -0.24300
C1436       C  0.64133242  0.37835676  0.02511444     0.18600
F1437       F  0.65454783  0.38519418  0.55117527    -0.14300
F1438       F  0.61222420  0.34374684  0.55128059    -0.16600
F1439       F  0.64228494  0.39786216  0.94630495    -0.16700
F1440       F  0.59951967  0.35615198  0.94643518    -0.14300
C1441       C  0.62469731  0.15055941  0.96755254     0.23700
C1442       C  0.61086637  0.15897024  0.99419186    -0.24400
C1443       C  0.61820376  0.14378498  0.52033153     0.18600
C1444       C  0.63919567  0.12120361  0.51996918     0.23700
C1445       C  0.65400828  0.11366182  0.99361396    -0.24300
C1446       C  0.64618005  0.12831416  0.96730184     0.18600
F1447       F  0.65981819  0.12177548  0.94135684    -0.14300
F1448       F  0.61811769  0.16436034  0.94174957    -0.16600
F1449       F  0.64504344  0.10684909  0.54565186    -0.16700
F1450       F  0.60520156  0.15078205  0.54648461    -0.14300
C1451       C  0.87353309  0.52659441  0.85127036     0.23700
C1452       C  0.88755692  0.50043071  0.84226337    -0.24400
C1453       C  0.88064199  0.47403651  0.85721343     0.18600
C1454       C  0.85896221  0.47361607  0.87946241     0.23700
C1455       C  0.84380553  0.49959675  0.88731629    -0.24300
C1456       C  0.85193218  0.52618160  0.87337856     0.18600
F1457       F  0.83825683  0.55190626  0.88026718    -0.14300
F1458       F  0.87987680  0.55267747  0.83800672    -0.16600
F1459       F  0.85267794  0.44768376  0.89305196    -0.16700
F1460       F  0.89467971  0.44851102  0.85023254    -0.14300
C1461       C  0.64926075  0.02570036  0.86800066     0.23700
C1462       C  0.65326729  0.00127270  0.88675776    -0.24400
C1463       C  0.63339192  0.47744081  0.88468125     0.18600
C1464       C  0.61072111  0.47759829  0.86347459     0.23700
C1465       C  0.60769446  0.50141830  0.84376155    -0.24300
C1466       C  0.62688534  0.02572976  0.84669650     0.18600
F1467       F  0.62500988  0.04906859  0.82800367    -0.14300
F1468       F  0.66783474  0.04918604  0.86927843    -0.16600
F1469       F  0.59160321  0.45455917  0.86240701    -0.16700
F1470       F  0.63570710  0.45413764  0.90335426    -0.14300
C1471       C  0.61683368  0.97540344  0.63977809     0.23700
C1472       C  0.61183041  0.00073204  0.65699486    -0.24400
C1473       C  0.62772009  0.02663825  0.65059558     0.18600
C1474       C  0.64828072  0.02718218  0.62762539     0.23700
C1475       C  0.65336075  0.00186887  0.61047277    -0.24300
C1476       C  0.63730521  0.97601461  0.61662912     0.18600
F1477       F  0.64137066  0.45123226  0.60027517    -0.14300
F1478       F  0.60190623  0.44999430  0.64518734    -0.16600
F1479       F  0.66398627  0.05227359  0.62301253    -0.16700
F1480       F  0.62418265  0.05133921  0.66715225    -0.14300
C1481       C  0.86814734  0.02975717  0.64781662     0.23700
C1482       C  0.88420106  0.00379032  0.65368854    -0.24400
C1483       C  0.87720390  0.47805312  0.63793664     0.18000
C1484       C  0.85401571  0.47787735  0.61758826     0.23700
C1485       C  0.83749951  0.50358550  0.61218385    -0.24300
C1486       C  0.84494350  0.02960189  0.62738311     0.18600
F1487       F  0.82922677  0.05477279  0.62326697    -0.14300
F1488       F  0.87419456  0.05518555  0.66243582    -0.16600
F1489       F  0.84784919  0.45239062  0.60316084    -0.16700
F1490       F  0.89281487  0.45285377  0.64214048    -0.14300
C1491       C  0.52196941  0.14638464  0.87464738     0.23700
C1492       C  0.49609752  0.16255340  0.88079867    -0.24400
C1493       C  0.97045661  0.15675938  0.86409302     0.18600
C1494       C  0.97060990  0.13508963  0.84204562     0.23700
C1495       C  0.99636380  0.11856490  0.83627009    -0.24300
C1496       C  0.52208672  0.12464967  0.85270805     0.18600
F1497       F  0.54743267  0.10933052  0.84786759    -0.14300
F1498       F  0.54721979  0.15126009  0.89012669    -0.16600
F1499       F  0.94565939  0.13086895  0.82589186    -0.16700
F1500       F  0.94533230  0.17257750  0.86847408    -0.14300
C1501       C  0.52047194  0.35171525  0.87018196     0.23700
C1502       C  0.99380992  0.34241026  0.88331576    -0.24400
C1503       C  0.96707002  0.35525009  0.87378644     0.18600
C1504       C  0.96707963  0.37680785  0.85157973     0.23700
C1505       C  0.99380724  0.38576385  0.83823436    -0.24300
C1506       C  0.52045836  0.37299398  0.84795648     0.18600
F1507       F  0.54678872  0.38069847  0.83571896    -0.14300
F1508       F  0.54683038  0.33996948  0.87842372    -0.16600
F1509       F  0.94088856  0.38891745  0.84331669    -0.16700
F1510       F  0.94082422  0.34700711  0.88586862    -0.14300
C1511       C  0.97181594  0.38179975  0.63781385     0.23700
C1512       C  0.49848615  0.39115612  0.65096817    -0.24400
C1513       C  0.52523665  0.37869884  0.64100008     0.18600
C1514       C  0.52517370  0.35606703  0.62001493     0.23700
C1515       C  0.99834921  0.34521721  0.60850643    -0.24300
C1516       C  0.97173181  0.35899151  0.61698032     0.18600
F1517       F  0.94542271  0.35016354  0.60551542    -0.14300
F1518       F  0.94558860  0.39427536  0.64543211    -0.16600
F1519       F  0.55149772  0.34424552  0.61171179    -0.16700
F1520       F  0.55160472  0.38776381  0.65209099    -0.14300
C1521       C  0.97346464  0.11789816  0.63736620     0.23700
C1522       C  0.50019406  0.10733240  0.64932147    -0.24400
C1523       C  0.52706338  0.11767949  0.63734393     0.18600
C1524       C  0.52714430  0.13995186  0.61584741     0.23700
C1525       C  0.50034004  0.15212040  0.60560842    -0.24300
C1526       C  0.97353869  0.13992799  0.61580386     0.18600
F1527       F  0.94710361  0.14987818  0.60565762    -0.14300
F1528       F  0.94696732  0.10765853  0.64712731    -0.16600
F1529       F  0.55355747  0.15010660  0.60578447    -0.16700
F1530       F  0.55338537  0.10689309  0.64692799    -0.14300
N1531       N  0.56219861  0.98564676  0.21558747    -0.06000
N1532       N  0.57959675  0.97557090  0.19441964    -0.58100
N1533       N  0.55961188  0.51475882  0.28346061    -0.05700
N1534       N  0.57590656  0.52513477  0.30526662    -0.60200
N1535       N  0.55944076  0.98576602  0.28383921    -0.05300
N1536       N  0.57560423  0.97592225  0.30614309    -0.58100
N1537       N  0.56232371  0.51454965  0.21577644    -0.04900
N1538       N  0.57981642  0.52478698  0.19485964    -0.60600
C1539       C  0.59041509  0.50026717  0.18165440     0.96200
C1540       C  0.58568104  0.00079040  0.31940207     0.96000
N1541       N  0.98251988  0.56547256  0.28034557    -0.06200
N1542       N  0.97205371  0.58429995  0.30000229    -0.58700
N1543       N  0.51341417  0.56322003  0.21284647    -0.04300
N1544       N  0.52420547  0.57797914  0.19006611    -0.59900
N1545       N  0.98432004  0.56354839  0.21232618    -0.06200
N1546       N  0.97477929  0.57845297  0.18919599    -0.59000
N1547       N  0.51158401  0.56513860  0.28102848    -0.03900
N1548       N  0.52146675  0.58362218  0.30126506    -0.60000
Mn1549     Mn  0.53737929  0.54000724  0.24835825     1.18400
C1550       C  0.99658869  0.59539963  0.31306448     0.98300
C1551       C  0.49983077  0.58733399  0.17536794     0.98900
N1552       N  0.50997150  0.93631637  0.28075679    -0.06200
N1553       N  0.51937999  0.91870059  0.30189535    -0.62500
N1554       N  0.98305897  0.93815419  0.21175737    -0.05000
N1555       N  0.97330821  0.92250400  0.18919039    -0.63200
N1556       N  0.51216192  0.93761075  0.21271926    -0.05700
N1557       N  0.52270587  0.92154122  0.19075286    -0.62800
N1558       N  0.98090877  0.93631594  0.27976712    -0.04600
N1559       N  0.96997402  0.91868943  0.30031005    -0.63500
Mn1560     Mn  0.53666857  0.96058901  0.24833052     1.10700
C1561       C  0.99426881  0.90788198  0.31406810     0.99500
C1562       C  0.49823815  0.91231068  0.17609764     0.99600
N1563       N  0.93433222  0.51635564  0.21228818    -0.05700
N1564       N  0.91746415  0.52719101  0.19114771    -0.61100
N1565       N  0.93322198  0.98644890  0.27995143    -0.05100
N1566       N  0.91741745  0.97610913  0.30222575    -0.57800
N1567       N  0.93361988  0.51546202  0.28040383    -0.06400
N1568       N  0.91799218  0.52535831  0.30298201    -0.60700
N1569       N  0.93406407  0.98742182  0.21169273    -0.05400
N1570       N  0.91696789  0.97797687  0.19004460    -0.57900
Mn1571     Mn  0.95800111  0.54084748  0.24647236     1.20200
Mn1572     Mn  0.95706533  0.96141861  0.24570342     1.10100
Cl1573     Cl  0.49728946  0.50067405  0.24739343    -0.85800
C1574       C  0.90682955  0.50303842  0.17730125     0.96500
C1575       C  0.90803512  0.00058546  0.31652468     0.96300
N1576       N  0.98461946  0.71487782  0.06149435    -0.06000
N1577       N  0.97503830  0.69211348  0.07688397    -0.58100
N1578       N  0.51254821  0.78335880  0.06269672    -0.05700
N1579       N  0.52277477  0.80569381  0.07828656    -0.60200
N1580       N  0.98347680  0.78296581  0.06341477    -0.05300
N1581       N  0.97336433  0.80504109  0.07951226    -0.58100
N1582       N  0.51372545  0.71520846  0.06089984    -0.04900
N1583       N  0.52445475  0.69263058  0.07592220    -0.60600
C1584       C  0.50004502  0.67825971  0.08572743     0.96200
C1585       C  0.99812597  0.81915649  0.08864435     0.96000
N1586       N  0.55948198  0.78650005  0.48338458    -0.06200
N1587       N  0.57473932  0.80928372  0.47347046    -0.58700
N1588       N  0.56205018  0.71787110  0.01085259    -0.04300
N1589       N  0.57943482  0.69647300  0.02018348    -0.59900
N1590       N  0.56141408  0.71846642  0.48178856    -0.06200
N1591       N  0.57840679  0.69747983  0.47079986    -0.59000
N1592       N  0.56015260  0.78573358  0.01245648    -0.03900
N1593       N  0.57585665  0.80793263  0.02283197    -0.60000
Mn1594     Mn  0.53784281  0.75048378  0.03745591     1.18400
C1595       C  0.58481476  0.82258647  0.49832263     0.98300
C1596       C  0.58947402  0.68380034  0.49500161     0.98900
N1597       N  0.93324314  0.78353229  0.01570047    -0.06200
N1598       N  0.91661639  0.80480630  0.02674430    -0.62500
N1599       N  0.93331010  0.71656783  0.48483008    -0.05000
N1600       N  0.91545332  0.69598095  0.47458972    -0.63200
N1601       N  0.93378452  0.71605053  0.01392281    -0.05700
N1602       N  0.91614877  0.69521246  0.02404608    -0.62800
N1603       N  0.93273863  0.78422000  0.48661104    -0.04600
N1604       N  0.91579743  0.80598363  0.47736051    -0.63500
Mn1605     Mn  0.95818357  0.74927807  0.03940253     1.10700
C1606       C  0.90591777  0.81880238  0.50254944     0.99500
C1607       C  0.90496344  0.68277030  0.49928081     0.99600
N1608       N  0.51073570  0.71848361  0.43359499    -0.05700
N1609       N  0.52083554  0.69846857  0.41497831    -0.61100
N1610       N  0.98050714  0.78554682  0.43549349    -0.05100
N1611       N  0.96976139  0.80601567  0.41773976    -0.57800
N1612       N  0.50959473  0.78583239  0.43487826    -0.06400
N1613       N  0.51917587  0.80646372  0.41675678    -0.60700
N1614       N  0.98160263  0.71813611  0.43410978    -0.05400
N1615       N  0.97138669  0.69792150  0.41577544    -0.57900
Mn1616     Mn  0.53598728  0.75230243  0.45784916     1.20200
Mn1617     Mn  0.95638063  0.75110048  0.45973042     1.10100
Cl1618     Cl  0.99708905  0.75071601  0.49857305    -0.85800
C1619       C  0.49608763  0.68567966  0.40403815     0.96500
C1620       C  0.99416621  0.81905254  0.40626712     0.96300
N1621       N  0.78112244  0.93653972  0.48572633    -0.06000
N1622       N  0.80290658  0.91942288  0.47664839    -0.58100
N1623       N  0.71221049  0.93776952  0.01271546    -0.05700
N1624       N  0.68961036  0.92239445  0.02286890    -0.60200
N1625       N  0.71266645  0.93720447  0.48365554    -0.05300
N1626       N  0.69031940  0.92139128  0.47348335    -0.58100
N1627       N  0.78038567  0.93726195  0.01479224    -0.04900
N1628       N  0.80155333  0.92059533  0.02602200    -0.60600
C1629       C  0.81560145  0.90965062  0.50195622     0.96200
C1630       C  0.67600750  0.91230339  0.49821896     0.96000
N1631       N  0.71105781  0.51628130  0.05988776    -0.06200
N1632       N  0.68964677  0.52650463  0.07684460    -0.58700
N1633       N  0.77888624  0.98775433  0.06280354    -0.04300
N1634       N  0.79990537  0.97812173  0.08055717    -0.59900
N1635       N  0.77864209  0.51671613  0.06233266    -0.06200
N1636       N  0.79943729  0.52738212  0.07977024    -0.59000
N1637       N  0.71126286  0.98736896  0.06038902    -0.03900
N1638       N  0.68998321  0.97728568  0.07755340    -0.60000
Mn1639     Mn  0.74577896  0.96187816  0.03829660     1.18400
C1640       C  0.67660145  0.50189141  0.08759151     0.98300
C1641       C  0.81262523  0.00305362  0.09094073     0.98900
N1642       N  0.71422576  0.98541351  0.43368743    -0.06200
N1643       N  0.69166983  0.97561922  0.41786012    -0.62500
N1644       N  0.78309290  0.51374348  0.43502791    -0.05000
N1645       N  0.80512727  0.52374112  0.41875799    -0.63200
N1646       N  0.78302353  0.98474253  0.43520818    -0.05700
N1647       N  0.80514014  0.97451190  0.41897307    -0.62800
N1648       N  0.71492545  0.51436955  0.43317168    -0.04600
N1649       N  0.69309499  0.52481672  0.41695298    -0.63500
Mn1650     Mn  0.74781515  0.96016812  0.45876902     1.10700
C1651       C  0.67866583  0.50048391  0.40753384     0.99500
C1652       C  0.81887318  0.99913555  0.40888546     0.99600
N1653       N  0.78037716  0.56465817  0.01224752    -0.05700
N1654       N  0.80092151  0.58232902  0.02290664    -0.61100
N1655       N  0.71364867  0.56431571  0.48091941    -0.05100
N1656       N  0.69257530  0.58124929  0.46991252    -0.57800
N1657       N  0.71257368  0.56447846  0.00996252    -0.06400
N1658       N  0.69082169  0.58144796  0.01928983    -0.60700
N1659       N  0.78170238  0.56390148  0.48320821    -0.05400
N1660       N  0.80324474  0.58101217  0.47351402    -0.57900
Mn1661     Mn  0.74560799  0.54117887  0.03669928     1.20200
Mn1662     Mn  0.74847568  0.53965004  0.45734410     1.10100
Cl1663     Cl  0.74704751  0.00070825  0.49776597    -0.85800
C1664       C  0.81512530  0.59229905  0.49853061     0.96500
C1665       C  0.67837075  0.59173173  0.49413966     0.96300
C1666       C  0.85438811  0.87938250  0.47652963     0.23700
C1667       C  0.84042036  0.88814579  0.50291873    -0.24400
C1668       C  0.84981013  0.87536526  0.02976468     0.18600
C1669       C  0.87178732  0.85351328  0.02992496     0.23700
C1670       C  0.88461808  0.84375957  0.50321521    -0.24300
C1671       C  0.87606033  0.85748662  0.47665810     0.18600
F1672       F  0.88842511  0.84960388  0.45046245    -0.14300
F1673       F  0.84691787  0.89173900  0.45024746    -0.16600
F1674       F  0.87993203  0.84153113  0.05620607    -0.16700
F1675       F  0.83728095  0.88337076  0.05586203    -0.14300
C1676       C  0.85786848  0.61829414  0.47473073     0.23700
C1677       C  0.83873726  0.61481791  0.49904210    -0.24400
C1678       C  0.84167017  0.63380642  0.02346988     0.18600
C1679       C  0.86328238  0.65579346  0.02357076     0.23700
C1680       C  0.88240853  0.65926065  0.49926143    -0.24300
C1681       C  0.87936361  0.64044758  0.47475417     0.18600
F1682       F  0.89743566  0.64322442  0.45091095    -0.14300
F1683       F  0.85608358  0.60000064  0.45105082    -0.16600
F1684       F  0.86462147  0.67446765  0.04699147    -0.16700
F1685       F  0.82294575  0.63187751  0.04689456    -0.14300
C1686       C  0.61929691  0.85673812  0.52517658     0.23700
C1687       C  0.60554891  0.84802836  0.49864787    -0.24400
C1688       C  0.61312801  0.86286533  0.47232545     0.18600
C1689       C  0.63528423  0.88449165  0.47225870     0.23700
C1690       C  0.65030068  0.89184202  0.49853222    -0.24300
C1691       C  0.64133112  0.87833786  0.52512286     0.18600
F1692       F  0.65458174  0.88514200  0.05116824    -0.14300
F1693       F  0.61225987  0.84369545  0.05126666    -0.16600
F1694       F  0.64220182  0.89793474  0.44633546    -0.16700
F1695       F  0.59945105  0.85620778  0.44645760    -0.14300
C1696       C  0.62472037  0.65059348  0.46756243     0.23700
C1697       C  0.61087626  0.65899231  0.49419863    -0.24400
C1698       C  0.61820911  0.64381102  0.02032981     0.18600
C1699       C  0.63919063  0.62121991  0.01996845     0.23700
C1700       C  0.65400877  0.61367427  0.49361871    -0.24300
C1701       C  0.64619710  0.62834260  0.46731059     0.18600
F1702       F  0.65984633  0.62181430  0.44136878    -0.14300
F1703       F  0.61815944  0.66441166  0.44176393    -0.16600
F1704       F  0.64502531  0.60685798  0.04564984    -0.16700
F1705       F  0.60520154  0.65080782  0.04648031    -0.14300
C1706       C  0.87352012  0.02654869  0.35127354     0.23700
C1707       C  0.88753867  0.00038564  0.34225845    -0.24400
C1708       C  0.88061589  0.97398689  0.35719867     0.18600
C1709       C  0.85894002  0.97356561  0.37945268     0.23700
C1710       C  0.84379381  0.99954885  0.38731831    -0.24300
C1711       C  0.85192363  0.02613472  0.37338465     0.18600
F1712       F  0.83825541  0.05186109  0.38028039    -0.14300
F1713       F  0.87986470  0.05263416  0.33801524    -0.16600
F1714       F  0.85265049  0.94763135  0.39303647    -0.16700
F1715       F  0.89464121  0.94845856  0.35020330    -0.14300
C1716       C  0.64926342  0.52566164  0.36799278     0.23700
C1717       C  0.65328020  0.50123126  0.38674331    -0.24400
C1718       C  0.63334980  0.97751817  0.38472766     0.18600
C1719       C  0.61068284  0.97767593  0.36351721     0.23700
C1720       C  0.60769797  0.00146651  0.34376295    -0.24300
C1721       C  0.62688438  0.52569007  0.34669436     0.18600
F1722       F  0.62499917  0.54903343  0.32800826    -0.14300
F1723       F  0.66782997  0.54915291  0.36927221    -0.16600
F1724       F  0.59152473  0.95466833  0.36248820    -0.16700
F1725       F  0.63562318  0.95424508  0.40344355    -0.14300
C1726       C  0.61690044  0.47534500  0.13984149     0.23700
C1727       C  0.61185735  0.50069101  0.15702201    -0.24400
C1728       C  0.62771514  0.52660876  0.15059099     0.18600
C1729       C  0.64827650  0.52715037  0.12762182     0.23700
C1730       C  0.65339361  0.50182212  0.11050234    -0.24300
C1731       C  0.63737633  0.47595233  0.11669541     0.18600
F1732       F  0.64133110  0.95126792  0.10024947    -0.14300
F1733       F  0.60187820  0.95002854  0.14517021    -0.16600
F1734       F  0.66394244  0.55225979  0.12297411    -0.16700
F1735       F  0.62414229  0.55132803  0.16711237    -0.14300
C1736       C  0.86815759  0.52978100  0.14780281     0.23700
C1737       C  0.88420934  0.50381356  0.15367824    -0.24400
C1738       C  0.87721619  0.97803821  0.13792308     0.18000
C1739       C  0.85402512  0.97786504  0.11757695     0.23700
C1740       C  0.83750092  0.00357106  0.11218620    -0.24300
C1741       C  0.84495107  0.52962364  0.12737153     0.18600
F1742       F  0.82923729  0.55479541  0.12324961    -0.14300
F1743       F  0.87420954  0.55521158  0.16241617    -0.16600
F1744       F  0.84786404  0.95238391  0.10313742    -0.16700
F1745       F  0.89283459  0.95284157  0.14211566    -0.14300
C1746       C  0.52196572  0.64637995  0.37465424     0.23700
C1747       C  0.49609530  0.66255470  0.38079478    -0.24400
C1748       C  0.97045857  0.65676611  0.36408024     0.18600
C1749       C  0.97061556  0.63509538  0.34203390     0.23700
C1750       C  0.99636802  0.61856407  0.33626958    -0.24300
C1751       C  0.52208708  0.62464508  0.35271524     0.18600
F1752       F  0.54743184  0.60932118  0.34788434    -0.14300
F1753       F  0.54721085  0.65124942  0.39014395    -0.16600
F1754       F  0.94567046  0.63088029  0.32587016    -0.16700
F1755       F  0.94533705  0.67259205  0.36844941    -0.14300
C1756       C  0.52049079  0.85175688  0.37022193     0.23700
C1757       C  0.99382186  0.84243061  0.38333179    -0.24400
C1758       C  0.96708159  0.85525590  0.37378506     0.18600
C1759       C  0.96709514  0.87681809  0.35158402     0.23700
C1760       C  0.99382724  0.88579232  0.33826033    -0.24300
C1761       C  0.52048153  0.87304036  0.34800109     0.18600
F1762       F  0.54681704  0.88076921  0.33579011    -0.14300
F1763       F  0.54685074  0.84003067  0.37848704    -0.16600
F1764       F  0.94090235  0.88891168  0.34330290    -0.16700
F1765       F  0.94083092  0.84699196  0.38584216    -0.14300
C1766       C  0.97181142  0.88179467  0.13782743     0.23700
C1767       C  0.49848428  0.89113999  0.15098431    -0.24400
C1768       C  0.52522976  0.87866851  0.14102322     0.18600
C1769       C  0.52516010  0.85603984  0.12003552     0.23700
C1770       C  0.99833307  0.84520468  0.10851928    -0.24300
C1771       C  0.97172009  0.85898814  0.11699130     0.18600
F1772       F  0.94540955  0.85017352  0.10551903    -0.14300
F1773       F  0.94558891  0.89428428  0.14543972    -0.16600
F1774       F  0.55148051  0.84420613  0.11173896    -0.16700
F1775       F  0.55159965  0.88771706  0.15212291    -0.14300
C1776       C  0.97351677  0.61787988  0.13734709     0.23700
C1777       C  0.50024728  0.60736397  0.14934568    -0.24400
C1778       C  0.52711663  0.61777233  0.13742200     0.18600
C1779       C  0.52718934  0.64004724  0.11592825     0.23700
C1780       C  0.50037762  0.65215464  0.10563469    -0.24300
C1781       C  0.97358339  0.63991123  0.11578643     0.18600
F1782       F  0.94714644  0.64980698  0.10559177    -0.14300
F1783       F  0.94702338  0.60758317  0.14705799    -0.16600
F1784       F  0.55359984  0.65026892  0.10592669    -0.16700
F1785       F  0.55344453  0.60704756  0.14705938    -0.14300
N1786       N  0.56219184  0.98564120  0.71558172    -0.06000
N1787       N  0.57958412  0.97556545  0.69440856    -0.58100
N1788       N  0.55961683  0.51476129  0.78345410    -0.05700
N1789       N  0.57591183  0.52513368  0.80526168    -0.60200
N1790       N  0.55944014  0.98576428  0.78383657    -0.05300
N1791       N  0.57560009  0.97592227  0.80614392    -0.58100
N1792       N  0.56232531  0.51455887  0.71577005    -0.04900
N1793       N  0.57982051  0.52479846  0.69485653    -0.60600
C1794       C  0.59041985  0.50028004  0.68164982     0.96200
C1795       C  0.58567410  0.00079115  0.81940389     0.96000
N1796       N  0.98252679  0.56547902  0.78034545    -0.06200
N1797       N  0.97206252  0.58430782  0.80000145    -0.58700
N1798       N  0.51341309  0.56322804  0.71284272    -0.04300
N1799       N  0.52419965  0.57798461  0.69005813    -0.59900
N1800       N  0.98431826  0.56355598  0.71232763    -0.06200
N1801       N  0.97477197  0.57845690  0.68919783    -0.59000
N1802       N  0.51158996  0.56514520  0.78102572    -0.03900
N1803       N  0.52147429  0.58363044  0.80125991    -0.60000
Mn1804     Mn  0.53738244  0.54001409  0.74835355     1.18400
C1805       C  0.99659850  0.59540880  0.81306031     0.98300
C1806       C  0.49982149  0.58733677  0.67536321     0.98900
N1807       N  0.50997042  0.93631566  0.78076140    -0.06200
N1808       N  0.51937961  0.91870477  0.80190394    -0.62500
N1809       N  0.98305386  0.93814721  0.71176221    -0.05000
N1810       N  0.97330203  0.92249571  0.68919658    -0.63200
N1811       N  0.51215662  0.93760374  0.71272300    -0.05700
N1812       N  0.52269961  0.92153354  0.69075660    -0.62800
N1813       N  0.98090907  0.93631549  0.77977253    -0.04600
N1814       N  0.96997526  0.91869377  0.80031977    -0.63500
Mn1815     Mn  0.53666570  0.96058491  0.74833038     1.10700
C1816       C  0.99427037  0.90788859  0.81407885     0.99500
C1817       C  0.49823129  0.91230153  0.67610348     0.99600
N1818       N  0.93433044  0.51636471  0.71229281    -0.05700
N1819       N  0.91745819  0.52719973  0.69115538    -0.61100
N1820       N  0.93322082  0.98644648  0.77995683    -0.05100
N1821       N  0.91741746  0.97610849  0.80223278    -0.57800
N1822       N  0.93362739  0.51546909  0.78040713    -0.06400
N1823       N  0.91799805  0.52536552  0.80298390    -0.60700
N1824       N  0.93405686  0.98741433  0.71169826    -0.05400
N1825       N  0.91695878  0.97796806  0.69005202    -0.57900
Mn1826     Mn  0.95800435  0.54085491  0.74647498     1.20200
Mn1827     Mn  0.95706221  0.96141402  0.74570866     1.10100
Cl1828     Cl  0.49729232  0.50068110  0.74738983    -0.85800
C1829       C  0.90682260  0.50304659  0.67731037     0.96500
C1830       C  0.90803616  0.00058604  0.81653051     0.96300
N1831       N  0.98461002  0.71487721  0.56148709    -0.06000
N1832       N  0.97502455  0.69211140  0.57687170    -0.58100
N1833       N  0.51254582  0.78335692  0.56269403    -0.05700
N1834       N  0.52277204  0.80569154  0.57828508    -0.60200
N1835       N  0.98347404  0.78296519  0.56341040    -0.05300
N1836       N  0.97336124  0.80504079  0.57950714    -0.58100
N1837       N  0.51371716  0.71520479  0.56089473    -0.04900
N1838       N  0.52444258  0.69262306  0.57591387    -0.60600
C1839       C  0.50003033  0.67825356  0.58571527     0.96200
C1840       C  0.99812253  0.81915490  0.58864138     0.96000
N1841       N  0.55947919  0.78650749  0.98338575    -0.06200
N1842       N  0.57473387  0.80929288  0.97347094    -0.58700
N1843       N  0.56204510  0.71786451  0.51085161    -0.04300
N1844       N  0.57943081  0.69646760  0.52018327    -0.59900
N1845       N  0.56141834  0.71847301  0.98178954    -0.06200
N1846       N  0.57840919  0.69748544  0.97080013    -0.59000
N1847       N  0.56015428  0.78572611  0.51245554    -0.03900
N1848       N  0.57586031  0.80792334  0.52283160    -0.60000
Mn1849     Mn  0.53783933  0.75047910  0.53745391     1.18400
C1850       C  0.58480891  0.82259671  0.99832279     0.98300
C1851       C  0.58947645  0.68380511  0.99500147     0.98900
N1852       N  0.93324494  0.78353827  0.51569443    -0.06200
N1853       N  0.91661972  0.80481281  0.52673846    -0.62500
N1854       N  0.93331469  0.71656021  0.98483672    -0.05000
N1855       N  0.91545838  0.69597243  0.97459719    -0.63200
N1856       N  0.93377926  0.71605765  0.51391588    -0.05700
N1857       N  0.91614285  0.69522021  0.52403883    -0.62800
N1858       N  0.93273583  0.78421300  0.98661717    -0.04600
N1859       N  0.91579253  0.80597500  0.97736643    -0.63500
Mn1860     Mn  0.95817985  0.74928119  0.53939636     1.10700
C1861       C  0.90591240  0.81879409  0.00255501     0.99500
C1862       C  0.90496914  0.68276134  0.99928856     0.99600
N1863       N  0.51073883  0.71848521  0.93359848    -0.05700
N1864       N  0.52084053  0.69847238  0.91498031    -0.61100
N1865       N  0.98050409  0.78554595  0.93549714    -0.05100
N1866       N  0.96975747  0.80601642  0.91774519    -0.57800
N1867       N  0.50959087  0.78583385  0.93488322    -0.06400
N1868       N  0.51917132  0.80646882  0.91676579    -0.60700
N1869       N  0.98160685  0.71813448  0.93411410    -0.05400
N1870       N  0.97139293  0.69791961  0.91577881    -0.57900
Mn1871     Mn  0.53598728  0.75230666  0.95785193     1.20200
Mn1872     Mn  0.95638116  0.75109604  0.95973551     1.10100
Cl1873     Cl  0.99709107  0.75071617  0.99857699    -0.85800
C1874       C  0.49609377  0.68568127  0.90404025     0.96500
C1875       C  0.99416228  0.81905652  0.90627534     0.96300
N1876       N  0.78112515  0.93654403  0.98572853    -0.06000
N1877       N  0.80290902  0.91942635  0.97665159    -0.58100
N1878       N  0.71220879  0.93776567  0.51271395    -0.05700
N1879       N  0.68960992  0.92238943  0.52286774    -0.60200
N1880       N  0.71266814  0.93720810  0.98365714    -0.05300
N1881       N  0.69032017  0.92139634  0.97348454    -0.58100
N1882       N  0.78038284  0.93725721  0.51478985    -0.04900
N1883       N  0.80155091  0.92059085  0.52601904    -0.60600
C1884       C  0.81560401  0.90965407  0.00195972     0.96200
C1885       C  0.67600752  0.91230917  0.99821988     0.96000
N1886       N  0.71106486  0.51629481  0.55988903    -0.06200
N1887       N  0.68965561  0.52652211  0.57684565    -0.58700
N1888       N  0.77888332  0.98774881  0.56280167    -0.04300
N1889       N  0.79990351  0.97811565  0.58055356    -0.59900
N1890       N  0.77864784  0.51671934  0.56233002    -0.06200
N1891       N  0.79944280  0.52738466  0.57976807    -0.59000
N1892       N  0.71125842  0.98736373  0.56038700    -0.03900
N1893       N  0.68997455  0.97728070  0.57754632    -0.60000
Mn1894     Mn  0.74577620  0.96187339  0.53829498     1.18400
C1895       C  0.67660649  0.50191086  0.58759201     0.98300
C1896       C  0.81262411  0.00304728  0.59093692     0.98900
N1897       N  0.71422331  0.98541661  0.93368851    -0.06200
N1898       N  0.69166426  0.97562263  0.91786470    -0.62500
N1899       N  0.78309402  0.51374774  0.93502827    -0.05000
N1900       N  0.80512623  0.52374820  0.91875708    -0.63200
N1901       N  0.78302253  0.98474717  0.93520862    -0.05700
N1902       N  0.80514068  0.97451695  0.91897548    -0.62800
N1903       N  0.71492611  0.51436324  0.93317051    -0.04600
N1904       N  0.69309439  0.52480812  0.91695221    -0.63500
Mn1905     Mn  0.74781559  0.96017185  0.95877018     1.10700
C1906       C  0.67866961  0.50047403  0.90752983     0.99500
C1907       C  0.81887338  0.99914092  0.90888837     0.99600
N1908       N  0.78038649  0.56465779  0.51224383    -0.05700
N1909       N  0.80092985  0.58233000  0.52290156    -0.61100
N1910       N  0.71363943  0.56430802  0.98091989    -0.05100
N1911       N  0.69256591  0.58124129  0.96991257    -0.57800
N1912       N  0.71258471  0.56448786  0.50996211    -0.06400
N1913       N  0.69083436  0.58145873  0.51929000    -0.60700
N1914       N  0.78169439  0.56390280  0.98321198    -0.05400
N1915       N  0.80323850  0.58101242  0.97351922    -0.57900
Mn1916     Mn  0.74561655  0.54118505  0.53669771     1.20200
Mn1917     Mn  0.74847166  0.53964806  0.95734510     1.10100
Cl1918     Cl  0.74704804  0.00071226  0.99776693    -0.85800
C1919       C  0.81511876  0.59229806  0.99853646     0.96500
C1920       C  0.67835912  0.59172186  0.99413927     0.96300
C1921       C  0.85437356  0.87936594  0.97653119     0.23700
C1922       C  0.84042129  0.88814629  0.00292264    -0.24400
C1923       C  0.84979620  0.87535175  0.52975862     0.18600
C1924       C  0.87177600  0.85350321  0.52991885     0.23700
C1925       C  0.88461316  0.84375270  0.00321961    -0.24300
C1926       C  0.87604144  0.85746589  0.97665974     0.18600
F1927       F  0.88838701  0.84956459  0.95046080    -0.14300
F1928       F  0.84689131  0.89170874  0.95024602    -0.16600
F1929       F  0.87990629  0.84150663  0.55619774    -0.16700
F1930       F  0.83725035  0.88333989  0.55585332    -0.14300
C1931       C  0.85786570  0.61828965  0.97473717     0.23700
C1932       C  0.83873511  0.61481357  0.99904926    -0.24400
C1933       C  0.84166737  0.63381385  0.52346101     0.18600
C1934       C  0.86327682  0.65580303  0.52356141     0.23700
C1935       C  0.88241278  0.65925184  0.99926960    -0.24300
C1936       C  0.87936388  0.64044064  0.97476120     0.18600
F1937       F  0.89743436  0.64321726  0.95091676    -0.14300
F1938       F  0.85607697  0.59999868  0.95105563    -0.16600
F1939       F  0.86461239  0.67447953  0.54698057    -0.16700
F1940       F  0.82294097  0.63188555  0.54688420    -0.14300
C1941       C  0.61929130  0.85674864  0.02517641     0.23700
C1942       C  0.60554359  0.84803871  0.99864756    -0.24400
C1943       C  0.61312487  0.86287424  0.97232488     0.18600
C1944       C  0.63528326  0.88449873  0.97225817     0.23700
C1945       C  0.65029872  0.89184966  0.99853227    -0.24300
C1946       C  0.64132658  0.87834744  0.02512295     0.18600
F1947       F  0.65458753  0.88513173  0.55116774    -0.14300
F1948       F  0.61226635  0.84368435  0.55126681    -0.16600
F1949       F  0.64220458  0.89793871  0.94633425    -0.16700
F1950       F  0.59944867  0.85621636  0.94645669    -0.14300
C1951       C  0.62471273  0.65058801  0.96756092     0.23700
C1952       C  0.61087414  0.65899302  0.99419807    -0.24400
C1953       C  0.61821078  0.64380896  0.52032971     0.18600
C1954       C  0.63919650  0.62122178  0.51996839     0.23700
C1955       C  0.65399887  0.61366701  0.99361802    -0.24300
C1956       C  0.64618588  0.62833347  0.96730905     0.18600
F1957       F  0.65983029  0.62179968  0.94136614    -0.14300
F1958       F  0.61814979  0.66440333  0.94176137    -0.16600
F1959       F  0.64503103  0.60685806  0.54564884    -0.16700
F1960       F  0.60519887  0.65080079  0.54647939    -0.14300
C1961       C  0.87352801  0.02655304  0.85128364     0.23700
C1962       C  0.88754173  0.00038825  0.84226569    -0.24400
C1963       C  0.88061598  0.97398967  0.85720452     0.18600
C1964       C  0.85893939  0.97356950  0.87945747     0.23700
C1965       C  0.84379631  0.99955406  0.88732431    -0.24300
C1966       C  0.85193128  0.02614038  0.87339456     0.18600
F1967       F  0.83826803  0.05186848  0.88029385    -0.14300
F1968       F  0.87987797  0.05263899  0.83802887    -0.16600
F1969       F  0.85264551  0.94763483  0.89303846    -0.16700
F1970       F  0.89463899  0.94846022  0.85020870    -0.14300
C1971       C  0.64925593  0.52565940  0.86800150     0.23700
C1972       C  0.65328405  0.50122029  0.88673840    -0.24400
C1973       C  0.63335130  0.97751151  0.88472251     0.18600
C1974       C  0.61068475  0.97766847  0.86351120     0.23700
C1975       C  0.60768555  0.00146921  0.84377106    -0.24300
C1976       C  0.62687750  0.52568952  0.84670249     0.18600
F1977       F  0.62498198  0.54904298  0.82803019    -0.14300
F1978       F  0.66781051  0.54915926  0.86929496    -0.16600
F1979       F  0.59154239  0.95464861  0.86246631    -0.16700
F1980       F  0.63563942  0.95422697  0.90342212    -0.14300
C1981       C  0.61688500  0.47537156  0.63981774     0.23700
C1982       C  0.61186384  0.50070691  0.65701998    -0.24400
C1983       C  0.62774345  0.52661711  0.65061201     0.18600
C1984       C  0.64830582  0.52716106  0.62764373     0.23700
C1985       C  0.65339901  0.50184363  0.61050149    -0.24300
C1986       C  0.63735941  0.47598246  0.61667096     0.18600
F1987       F  0.64130073  0.95127044  0.60022041    -0.14300
F1988       F  0.60184101  0.95003215  0.64513705    -0.16600
F1989       F  0.66399711  0.55225924  0.62301982    -0.16700
F1990       F  0.62419168  0.55132443  0.66715595    -0.14300
C1991       C  0.86814473  0.52978433  0.64781649     0.23700
C1992       C  0.88420185  0.50381965  0.65368842    -0.24400
C1993       C  0.87720419  0.97802663  0.63793148     0.18000
C1994       C  0.85401697  0.97785533  0.61758082     0.23700
C1995       C  0.83749903  0.00356387  0.61218323    -0.24300
C1996       C  0.84494106  0.52962538  0.62738228     0.18600
F1997       F  0.82922157  0.55479417  0.62326370    -0.14300
F1998       F  0.87418856  0.55521317  0.66243621    -0.16600
F1999       F  0.84785327  0.95237333  0.60314380    -0.16700
F2000       F  0.89281524  0.95282685  0.64213199    -0.14300
C2001       C  0.52197419  0.64638569  0.87465227     0.23700
C2002       C  0.49610307  0.66255893  0.88079437    -0.24400
C2003       C  0.97046812  0.65677102  0.86407937     0.18600
C2004       C  0.97062617  0.63510334  0.84203035     0.23700
C2005       C  0.99637908  0.61857330  0.83626482    -0.24300
C2006       C  0.52209616  0.62465275  0.85271127     0.18600
F2007       F  0.54744072  0.60932863  0.84787976    -0.14300
F2008       F  0.54721885  0.65125395  0.89014310    -0.16600
F2009       F  0.94568152  0.63088956  0.82586561    -0.16700
F2010       F  0.94534524  0.67259399  0.86845135    -0.14300
C2011       C  0.52048879  0.85177177  0.87024261     0.23700
C2012       C  0.99381927  0.84243840  0.88334365    -0.24400
C2013       C  0.96707955  0.85526160  0.87379323     0.18600
C2014       C  0.96709489  0.87682513  0.85159351     0.23700
C2015       C  0.99382830  0.88580269  0.83827455    -0.24300
C2016       C  0.52048107  0.87305685  0.84802323     0.18600
F2017       F  0.54681809  0.88079161  0.83581922    -0.14300
F2018       F  0.54684883  0.84004899  0.87851223    -0.16600
F2019       F  0.94090223  0.88891604  0.84330818    -0.16700
F2020       F  0.94082759  0.84699365  0.88584464    -0.14300
C2021       C  0.97180353  0.88178227  0.63783617     0.23700
C2022       C  0.49847692  0.89113181  0.65098919    -0.24400
C2023       C  0.52522334  0.87866757  0.64102115     0.18600
C2024       C  0.52515481  0.85604186  0.62003014     0.23700
C2025       C  0.99832798  0.84520220  0.60851770    -0.24300
C2026       C  0.97171338  0.85897840  0.61699713     0.18600
F2027       F  0.94540218  0.85015833  0.60553049    -0.14300
F2028       F  0.94557929  0.89426322  0.64545687    -0.16600
F2029       F  0.55147631  0.84421611  0.61172556    -0.16700
F2030       F  0.55159335  0.88772028  0.65211710    -0.14300
C2031       C  0.97349468  0.61790683  0.63736999     0.23700
C2032       C  0.50023047  0.60736239  0.64933754    -0.24400
C2033       C  0.52709715  0.61774074  0.63738207     0.18600
C2034       C  0.52716890  0.64001190  0.61588424     0.23700
C2035       C  0.50035827  0.65214776  0.60562143    -0.24300
C2036       C  0.97355990  0.63993585  0.61580732     0.18600
F2037       F  0.94712141  0.64986419  0.60564854    -0.14300
F2038       F  0.94700101  0.60764340  0.64711577    -0.16600
F2039       F  0.55357853  0.65019965  0.60584556    -0.16700
F2040       F  0.55342421  0.60698790  0.64699014    -0.14300
loop_ 
_geom_bond_atom_site_label_1 
_geom_bond_atom_site_label_2 
_geom_bond_distance 
_geom_bond_site_symmetry_2 
_ccdc_geom_bond_type 
N1            N2   1.320       .  A
N1          N517   1.313       .  A
N1          Mn30   2.194       .  S
N2          C519   1.354       .  A
N3            N4   1.319       .  A
N3          N515   1.317   1_545  A
N3          Mn19   2.201       .  S
N4          C520   1.352       .  A
N5            N6   1.324       .  A
N5          N513   1.317       .  A
N5          Mn30   2.224       .  S
N6           C10   1.357       .  A
N7            N8   1.317       .  A
N7          N511   1.313   1_545  A
N7          Mn19   2.185       .  S
N8            C9   1.351       .  A
C9          N512   1.354   1_545  A
C9          C197   1.476       .  S
C10         N514   1.352       .  A
C10         C190   1.486       .  S
N11          N12   1.321       .  A
N11        N1037   1.314       .  A
N11         Mn41   2.197       .  S
N12          C20   1.354       .  A
N13          N14   1.322       .  A
N13        N1035   1.315   1_455  A
N13         Mn19   2.206       .  S
N14          C21   1.355   1_455  A
N15          N16   1.319       .  A
N15        N1033   1.315       .  A
N15         Mn41   2.204       .  S
N16        C1041   1.354       .  A
N17          N18   1.320       .  A
N17        N1031   1.314   1_455  A
N17         Mn19   2.200       .  S
N18        C1040   1.354   1_455  A
Mn19        Cl43   2.544   1_455  S
C20        N1038   1.354       .  A
C20         C220   1.486       .  S
C21        N1036   1.354       .  A
C21         C247   1.487   1_655  S
N22          N23   1.317       .  A
N22        N1048   1.314   1_455  A
N22         Mn30   2.194       .  S
N23        C1051   1.353   1_455  A
N24          N25   1.320       .  A
N24        N1046   1.316       .  A
N24         Mn42   2.202       .  S
N25        C1052   1.354       .  A
N26          N27   1.321       .  A
N26        N1044   1.316   1_455  A
N26         Mn30   2.216       .  S
N27          C32   1.356   1_455  A
N28          N29   1.322       .  A
N28        N1042   1.314       .  A
N28         Mn42   2.199       .  S
N29          C31   1.355       .  A
Mn30       Cl553   2.546   1_455  S
C31        N1043   1.353       .  A
C31         C230   1.484       .  S
C32        N1045   1.354       .  A
C32         C237   1.488       .  S
N33          N34   1.319       .  A
N33         N549   1.313   1_545  A
N33         Mn41   2.185       .  S
N34          C44   1.351       .  A
N35          N36   1.320       .  A
N35         N547   1.317       .  A
N35         Mn42   2.202       .  S
N36          C45   1.354       .  A
N37          N38   1.320       .  A
N37         N545   1.317   1_545  A
N37         Mn41   2.212       .  S
N38         C555   1.356       .  A
N39          N40   1.320       .  A
N39         N543   1.313       .  A
N39         Mn42   2.201       .  S
N40         C554   1.355       .  A
Mn41      Cl1063   2.546       .  S
Mn42      Cl1573   2.547       .  S
Cl43       Mn540   2.546   1_645  S
Cl43      Mn1061   2.546       .  S
Cl43      Mn1572   2.547   1_545  S
C44         N550   1.355   1_545  A
C44         C207   1.480       .  S
C45         N548   1.356       .  A
C45         C177   1.487       .  S
N46          N47   1.319       .  A
N46        N1072   1.316       .  A
N46         Mn75   2.206       .  S
N47        C1074   1.354       .  A
N48          N49   1.319       .  A
N48        N1070   1.314   1_455  A
N48         Mn64   2.199       .  S
N49        C1075   1.354   1_455  A
N50          N51   1.320       .  A
N50        N1068   1.314       .  A
N50         Mn75   2.197       .  S
N51          C55   1.354       .  A
N52          N53   1.322       .  A
N52        N1066   1.316   1_455  A
N52         Mn64   2.208       .  S
N53          C54   1.356       .  A
C54        N1067   1.354   1_455  A
C54         C250   1.488       .  S
C55        N1069   1.354       .  A
C55         C240   1.485       .  S
N56          N57   1.321       .  A
N56         N317   1.316       .  A
N56         Mn86   2.208       .  S
N57          C65   1.355       .  A
N58          N59   1.319       .  A
N58         N315   1.315   1_554  A
N58         Mn64   2.199       .  S
N59         C321   1.354   1_554  A
N60          N61   1.321       .  A
N60         N313   1.315       .  A
N60         Mn86   2.203       .  S
N61          C66   1.355       .  A
N62          N63   1.319       .  A
N62         N311   1.316   1_554  A
N62         Mn64   2.203       .  S
N63         C320   1.354   1_554  A
Mn64      Cl1363   2.548   1_454  S
C65         N318   1.354       .  A
C65         C157   1.487       .  S
C66         N314   1.354       .  A
C66         C167   1.485       .  S
N67          N68   1.321       .  A
N67         N328   1.316   1_554  A
N67         Mn75   2.200       .  S
N68         C331   1.355       .  A
N69          N70   1.319       .  A
N69         N326   1.316       .  A
N69         Mn87   2.198       .  S
N70          C77   1.353       .  A
N71          N72   1.319       .  A
N71         N324   1.316   1_554  A
N71         Mn75   2.196       .  S
N72         C332   1.353   1_554  A
N73          N74   1.318       .  A
N73         N322   1.316       .  A
N73         Mn87   2.209       .  S
N74          C76   1.355       .  A
Mn75       Cl343   2.549   1_554  S
C76         N323   1.355       .  A
C76         C140   1.487       .  S
C77         N327   1.353       .  A
C77         C150   1.476       .  S
N78          N79   1.320       .  A
N78        N1104   1.317   1_455  A
N78         Mn86   2.206       .  S
N79          C89   1.354   1_455  A
N80          N81   1.321       .  A
N80        N1102   1.315       .  A
N80         Mn87   2.198       .  S
N81          C90   1.354       .  A
N82          N83   1.317       .  A
N82        N1100   1.315   1_455  A
N82         Mn86   2.196       .  S
N83        C1110   1.353   1_455  A
N84          N85   1.321       .  A
N84        N1098   1.317       .  A
N84         Mn87   2.209       .  S
N85        C1109   1.355       .  A
Mn86      Cl1108   2.546   1_455  S
Mn87        Cl88   2.545       .  S
Cl88      Mn1339   2.548       .  S
Cl88       Mn330   2.549       .  S
Cl88      Mn1106   2.546       .  S
C89        N1105   1.355       .  A
C89         C217   1.486       .  S
C90        N1103   1.353       .  A
C90         C227   1.484       .  S
N91          N92   1.319       .  A
N91         N352   1.315       .  A
N91        Mn120   2.215       .  S
N92          C99   1.355       .  A
N93          N94   1.319       .  A
N93         N350   1.315   1_554  A
N93        Mn109   2.200       .  S
N94         C355   1.353   1_554  A
N95          N96   1.322       .  A
N95         N348   1.315       .  A
N95        Mn120   2.207       .  S
N96         C100   1.356       .  A
N97          N98   1.322       .  A
N97         N346   1.315   1_554  A
N97        Mn109   2.196       .  S
N98         C354   1.354       .  A
C99         N353   1.354       .  A
C99         C137   1.488       .  S
C100        N349   1.353       .  A
C100        C160   1.488       .  S
N101        N102   1.318       .  A
N101        N617   1.314   1_545  A
N101       Mn131   2.193       .  S
N102        C110   1.353       .  A
N103        N104   1.319       .  A
N103        N615   1.315       .  A
N103       Mn109   2.202       .  S
N104        C111   1.354       .  A
N105        N106   1.320       .  A
N105        N613   1.315   1_545  A
N105       Mn131   2.193       .  S
N106        C621   1.353       .  A
N107        N108   1.317       .  A
N107        N611   1.314       .  A
N107       Mn109   2.184       .  S
N108        C620   1.350       .  A
Mn109      Cl388   2.543   1_554  S
C110        N618   1.350   1_545  A
C110        C200   1.473       .  S
C111        N616   1.353       .  A
C111        C210   1.480       .  S
N112        N113   1.323       .  A
N112        N628   1.315       .  A
N112       Mn120   2.215       .  S
N113        C631   1.357       .  A
N114        N115   1.318       .  A
N114        N626   1.316   1_545  A
N114       Mn132   2.201       .  S
N115        C632   1.353   1_545  A
N116        N117   1.324       .  A
N116        N624   1.316       .  A
N116       Mn120   2.215       .  S
N117        C122   1.357       .  A
N118        N119   1.318       .  A
N118        N622   1.315   1_545  A
N118       Mn132   2.194       .  S
N119        C121   1.352       .  A
Mn120      Cl133   2.549       .  S
C121        N623   1.357   1_545  A
C121        C187   1.485       .  S
C122        N625   1.353       .  A
C122        C180   1.489       .  S
N123        N124   1.319       .  A
N123        N384   1.315   1_554  A
N123       Mn131   2.196       .  S
N124        C389   1.353   1_554  A
N125        N126   1.322       .  A
N125        N382   1.314       .  A
N125       Mn132   2.206       .  S
N126        C135   1.356       .  A
N127        N128   1.318       .  A
N127        N380   1.314   1_554  A
N127       Mn131   2.194       .  S
N128        C390   1.353   1_554  A
N129        N130   1.320       .  A
N129        N378   1.315       .  A
N129       Mn132   2.200       .  S
N130        C134   1.354       .  A
Mn131      Cl898   2.546   1_554  S
Mn132      Cl643   2.543       .  S
Cl133      Mn364   2.543       .  S
Cl133      Mn896   2.546       .  S
Cl133      Mn642   2.543       .  S
C134        N379   1.353       .  A
C134        C147   1.478       .  S
C135        N383   1.353       .  A
C135        C170   1.485       .  S
C136        C137   1.407       .  A
C136        C141   1.396       .  A
C136        F143   1.357       .  S
C137        C393   1.411       .  A
C138        C139   1.404       .  A
C138        C392   1.411       .  A
C138        F145   1.358       .  S
C139        C395   1.411       .  A
C139        F144   1.358       .  S
C140        C141   1.408       .  A
C140        C394   1.411       .  A
C141        F142   1.357       .  S
C146        C147   1.407       .  A
C146        C151   1.398       .  A
C146        F153   1.358       .  S
C147        C403   1.408       .  A
C148        C149   1.396       .  A
C148        C402   1.408   1_554  A
C148        F155   1.358       .  S
C149        C405   1.406   1_554  A
C149        F154   1.358       .  S
C150        C151   1.406       .  A
C150        C404   1.406       .  A
C151        F152   1.358       .  S
C156        C157   1.408       .  A
C156        C161   1.398       .  A
C156        F418   1.358       .  S
C157        C158   1.410       .  A
C158        C159   1.402       .  A
C158        F165   1.358       .  S
C159        C160   1.409       .  A
C159        F164   1.358       .  S
C160        C161   1.409       .  A
C161        F417   1.358       .  S
F162        C416   1.358       .  S
F163        C411   1.358       .  S
C166        C167   1.409       .  A
C166        C171   1.401       .  A
C166        F173   1.358       .  S
C167        C423   1.408       .  A
C168        C169   1.397       .  A
C168        C422   1.408   1_554  A
C168        F175   1.358       .  S
C169        C425   1.409   1_554  A
C169        F174   1.358       .  S
C170        C171   1.409       .  A
C170        C424   1.409       .  A
C171        F172   1.358       .  S
C176        C177   1.406       .  A
C176        C181   1.397       .  A
C176        F183   1.358       .  S
C177        C178   1.411       .  A
C178        C179   1.404       .  A
C178        F185   1.358       .  S
C179        C180   1.409       .  A
C179        F184   1.358       .  S
C180        C181   1.410       .  A
C181        F182   1.357       .  S
C186        C187   1.408       .  A
C186        C191   1.398       .  A
C186        F193   1.358       .  S
C187        C698   1.408   1_545  A
C188        C189   1.404       .  A
C188        C697   1.408       .  A
C188        F195   1.358       .  S
C189        C190   1.408       .  A
C189        F194   1.357       .  S
C190        C701   1.408       .  A
C191        C700   1.408       .  A
C191        F192   1.358       .  S
C196        C197   1.407   1_565  A
C196        C201   1.397       .  A
C196        F713   1.358       .  S
C197        C198   1.408       .  A
C198        C199   1.393       .  A
C198        F205   1.358       .  S
C199        C200   1.405       .  A
C199        F204   1.358       .  S
C200        C201   1.407   1_545  A
C201        F712   1.358       .  S
F202        C711   1.358       .  S
F203        C706   1.358       .  S
C206        C207   1.410       .  A
C206        C211   1.399       .  A
C206        F213   1.358       .  S
C207        C718   1.406   1_545  A
C208        C209   1.395       .  A
C208        C717   1.406       .  A
C208        F215   1.357       .  S
C209        C210   1.407       .  A
C209        F214   1.357       .  S
C210        C721   1.408       .  A
C211        C720   1.408       .  A
C211        F212   1.358       .  S
C216        C217   1.408   1_455  A
C216        C221   1.399       .  A
C216        F223   1.358       .  S
C217       C1238   1.409       .  A
C218        C219   1.401       .  A
C218       C1237   1.409       .  A
C218        F225   1.358       .  S
C219        C220   1.409       .  A
C219        F224   1.358       .  S
C220       C1241   1.408       .  A
C221       C1240   1.408   1_455  A
C221        F222   1.358       .  S
C226        C231   1.394       .  A
C226       C1247   1.408   1_455  A
C226        F233   1.358       .  S
C227        C228   1.410       .  A
C227       C1246   1.408       .  A
C228        C229   1.402       .  A
C228        F235   1.358       .  S
C229        C230   1.410       .  A
C229        F234   1.358       .  S
C230       C1251   1.408       .  A
C231       C1250   1.408   1_455  A
C231        F232   1.358       .  S
C236        C241   1.400       .  A
C236       C1257   1.410       .  A
C236        F243   1.358       .  S
C237        C238   1.408   1_655  A
C237       C1256   1.410       .  A
C238        C239   1.399       .  A
C238        F245   1.357       .  S
C239       C1260   1.409   1_455  A
C239        F244   1.358       .  S
C240        C241   1.409       .  A
C240       C1259   1.409       .  A
C241        F242   1.358       .  S
C246        C251   1.397       .  A
C246       C1267   1.408       .  A
C246        F253   1.358       .  S
C247        C248   1.410       .  A
C247       C1266   1.408   1_455  A
C248        C249   1.403       .  A
C248        F255   1.358       .  S
C249        C250   1.410       .  A
C249        F254   1.358       .  S
C250       C1271   1.409   1_455  A
C251       C1270   1.409       .  A
C251        F252   1.358       .  S
N256        N257   1.320       .  A
N256        N772   1.313       .  A
N256       Mn285   2.194       .  S
N257        C774   1.354       .  A
N258        N770   1.317   1_545  A
N258        N259   1.319       .  A
N258       Mn274   2.202       .  S
N259        C775   1.352       .  A
N260        N768   1.317       .  A
N260        N261   1.324       .  A
N260       Mn285   2.224       .  S
N261        C265   1.357       .  A
N262        N766   1.313   1_545  A
N262        N263   1.317       .  A
N262       Mn274   2.185       .  S
N263        C264   1.351       .  A
C264        N767   1.354   1_545  A
C264        C452   1.476       .  S
C265        N769   1.352       .  A
C265        C445   1.486       .  S
N266       N1292   1.314       .  A
N266        N267   1.321       .  A
N266       Mn296   2.197       .  S
N267        C275   1.354       .  A
N268        N269   1.322       .  A
N268       N1290   1.315   1_455  A
N268       Mn274   2.206       .  S
N269        C276   1.355   1_455  A
N270       N1288   1.315       .  A
N270        N271   1.319       .  A
N270       Mn296   2.204       .  S
N271       C1296   1.354       .  A
N272       N1286   1.314   1_455  A
N272        N273   1.320       .  A
N272       Mn274   2.200       .  S
N273       C1295   1.354   1_455  A
Mn274      Cl298   2.544   1_455  S
C275       N1293   1.354       .  A
C275        C475   1.486       .  S
C276       N1291   1.354       .  A
C276        C502   1.487   1_655  S
N277        N278   1.317       .  A
N277       N1303   1.314   1_455  A
N277       Mn285   2.194       .  S
N278       C1306   1.353   1_455  A
N279       N1301   1.316       .  A
N279        N280   1.320       .  A
N279       Mn297   2.202       .  S
N280       C1307   1.354       .  A
N281       N1299   1.316   1_455  A
N281        N282   1.321       .  A
N281       Mn285   2.216       .  S
N282        C287   1.356   1_455  A
N283       N1297   1.314       .  A
N283        N284   1.321       .  A
N283       Mn297   2.199       .  S
N284        C286   1.355       .  A
Mn285      Cl808   2.546   1_455  S
C286       N1298   1.353       .  A
C286        C485   1.484       .  S
C287       N1300   1.354       .  A
C287        C492   1.488       .  S
N288        N289   1.319       .  A
N288        N804   1.313   1_545  A
N288       Mn296   2.185       .  S
N289        C299   1.351       .  A
N290        N291   1.320       .  A
N290        N802   1.317       .  A
N290       Mn297   2.202       .  S
N291        C300   1.354       .  A
N292        N800   1.317   1_545  A
N292        N293   1.320       .  A
N292       Mn296   2.212       .  S
N293        C810   1.356       .  A
N294        N798   1.313       .  A
N294        N295   1.320       .  A
N294       Mn297   2.201       .  S
N295        C809   1.355       .  A
Mn296     Cl1318   2.546       .  S
Mn297     Cl1828   2.547       .  S
Cl298      Mn795   2.546   1_645  S
Cl298     Mn1316   2.546       .  S
Cl298     Mn1827   2.547   1_545  S
C299        N805   1.355   1_545  A
C299        C462   1.480       .  S
C300        N803   1.356       .  A
C300        C432   1.487       .  S
N301        N302   1.319       .  A
N301       N1327   1.316       .  A
N301       Mn330   2.206       .  S
N302       C1329   1.354       .  A
N303       N1325   1.314   1_455  A
N303        N304   1.319       .  A
N303       Mn319   2.199       .  S
N304       C1330   1.354   1_455  A
N305       N1323   1.314       .  A
N305        N306   1.320       .  A
N305       Mn330   2.197       .  S
N306        C310   1.354       .  A
N307       N1321   1.316   1_455  A
N307        N308   1.322       .  A
N307       Mn319   2.208       .  S
N308        C309   1.356       .  A
C309       N1322   1.354   1_455  A
C309        C505   1.488       .  S
C310       N1324   1.354       .  A
C310        C495   1.485       .  S
N311        N312   1.321       .  A
N311       Mn341   2.208       .  S
N312        C320   1.355       .  A
N313        N314   1.319       .  A
N313       Mn319   2.199       .  S
N315        N316   1.320       .  A
N315       Mn341   2.203       .  S
N316        C321   1.355       .  A
N317        N318   1.319       .  A
N317       Mn319   2.203       .  S
Mn319     Cl1108   2.548   1_455  S
C320        C412   1.487       .  S
C321        C422   1.485       .  S
N322        N323   1.321       .  A
N322       Mn330   2.200       .  S
N324        N325   1.319       .  A
N324       Mn342   2.198       .  S
N325        C332   1.353       .  A
N326        N327   1.319       .  A
N326       Mn330   2.196       .  S
N328        N329   1.318       .  A
N328       Mn342   2.209       .  S
N329        C331   1.355   1_556  A
C331        C395   1.487       .  S
C332        C405   1.476       .  S
N333        N334   1.320       .  A
N333       N1359   1.317   1_455  A
N333       Mn341   2.206       .  S
N334        C344   1.354   1_455  A
N335        N336   1.321       .  A
N335       N1357   1.315       .  A
N335       Mn342   2.198       .  S
N336        C345   1.354       .  A
N337       N1355   1.315   1_455  A
N337        N338   1.317       .  A
N337       Mn341   2.196       .  S
N338       C1365   1.353   1_455  A
N339       N1353   1.317       .  A
N339        N340   1.321       .  A
N339       Mn342   2.209       .  S
N340       C1364   1.355       .  A
Mn341     Cl1363   2.546   1_455  S
Mn342      Cl343   2.545       .  S
Cl343     Mn1084   2.548   1_556  S
Cl343     Mn1361   2.546       .  S
C344       N1360   1.355       .  A
C344        C472   1.486       .  S
C345       N1358   1.353       .  A
C345        C482   1.484       .  S
N346        N347   1.319       .  A
N346       Mn375   2.215       .  S
N347        C354   1.355   1_556  A
N348        N349   1.319       .  A
N348       Mn364   2.200       .  S
N350        N351   1.322       .  A
N350       Mn375   2.207       .  S
N351        C355   1.356       .  A
N352        N353   1.322       .  A
N352       Mn364   2.196       .  S
C354        C392   1.488       .  S
C355        C415   1.487       .  S
N356        N872   1.314   1_545  A
N356        N357   1.318       .  A
N356       Mn386   2.193       .  S
N357        C365   1.353       .  A
N358        N359   1.319       .  A
N358        N870   1.315       .  A
N358       Mn364   2.202       .  S
N359        C366   1.354       .  A
N360        N868   1.315   1_545  A
N360        N361   1.320       .  A
N360       Mn386   2.193       .  S
N361        C876   1.353       .  A
N362        N866   1.314       .  A
N362        N363   1.317       .  A
N362       Mn364   2.184       .  S
N363        C875   1.350       .  A
C365        N873   1.350   1_545  A
C365        C455   1.473       .  S
C366        N871   1.353       .  A
C366        C465   1.480       .  S
N367        N368   1.323       .  A
N367        N883   1.315       .  A
N367       Mn375   2.215       .  S
N368        C886   1.357       .  A
N369        N881   1.316   1_545  A
N369        N370   1.318       .  A
N369       Mn387   2.201       .  S
N370        C887   1.353   1_545  A
N371        N879   1.316       .  A
N371        N372   1.324       .  A
N371       Mn375   2.215       .  S
N372        C377   1.357       .  A
N373        N877   1.315   1_545  A
N373        N374   1.318       .  A
N373       Mn387   2.194       .  S
N374        C376   1.352       .  A
Mn375      Cl388   2.549       .  S
C376        N878   1.357   1_545  A
C376        C442   1.485       .  S
C377        N880   1.353       .  A
C377        C435   1.489       .  S
N378        N379   1.319       .  A
N378       Mn386   2.196       .  S
N380        N381   1.322       .  A
N380       Mn387   2.206       .  S
N381        C390   1.356       .  A
N382        N383   1.318       .  A
N382       Mn386   2.194       .  S
N384        N385   1.320       .  A
N384       Mn387   2.200       .  S
N385        C389   1.354       .  A
Mn386      Cl643   2.546       .  S
Mn387      Cl898   2.543       .  S
Cl388      Mn641   2.546   1_556  S
Cl388      Mn897   2.543       .  S
C389        C402   1.478       .  S
C390        C425   1.485       .  S
C391        C392   1.407   1_556  A
C391        C396   1.396       .  A
C391        F398   1.357       .  S
C393        C394   1.404       .  A
C393        F400   1.358       .  S
C394        F399   1.358       .  S
C395        C396   1.408   1_554  A
C396        F397   1.357       .  S
C401        C402   1.407       .  A
C401        C406   1.398       .  A
C401        F408   1.358       .  S
C403        C404   1.396       .  A
C403        F410   1.358       .  S
C404        F409   1.358       .  S
C405        C406   1.406       .  A
C406        F407   1.358       .  S
C411        C412   1.408   1_554  A
C411        C416   1.397       .  A
C412        C413   1.410       .  A
C413        C414   1.402       .  A
C413        F420   1.358       .  S
C414        C415   1.409       .  A
C414        F419   1.358       .  S
C415        C416   1.409   1_556  A
C421        C422   1.409       .  A
C421        C426   1.401       .  A
C421        F428   1.358       .  S
C423        C424   1.397       .  A
C423        F430   1.358       .  S
C424        F429   1.358       .  S
C425        C426   1.409       .  A
C426        F427   1.358       .  S
C431        C432   1.406       .  A
C431        C436   1.397       .  A
C431        F438   1.358       .  S
C432        C433   1.411       .  A
C433        C434   1.404       .  A
C433        F440   1.358       .  S
C434        C435   1.409       .  A
C434        F439   1.358       .  S
C435        C436   1.410       .  A
C436        F437   1.357       .  S
C441        C442   1.408       .  A
C441        C446   1.398       .  A
C441        F448   1.358       .  S
C442        C953   1.408   1_545  A
C443        C952   1.408       .  A
C443        C444   1.404       .  A
C443        F450   1.358       .  S
C444        C445   1.408       .  A
C444        F449   1.357       .  S
C445        C956   1.408       .  A
C446        C955   1.408       .  A
C446        F447   1.358       .  S
C451        C452   1.407   1_565  A
C451        C456   1.397       .  A
C451        F968   1.358       .  S
C452        C453   1.408       .  A
C453        C454   1.393       .  A
C453        F460   1.358       .  S
C454        C455   1.405       .  A
C454        F459   1.358       .  S
C455        C456   1.407   1_545  A
C456        F967   1.358       .  S
F457        C966   1.358       .  S
F458        C961   1.358       .  S
C461        C462   1.410       .  A
C461        C466   1.399       .  A
C461        F468   1.358       .  S
C462        C973   1.406   1_545  A
C463        C972   1.406       .  A
C463        C464   1.395       .  A
C463        F470   1.357       .  S
C464        C465   1.407       .  A
C464        F469   1.357       .  S
C465        C976   1.408       .  A
C466        C975   1.408       .  A
C466        F467   1.358       .  S
C471        C472   1.408   1_455  A
C471        C476   1.399       .  A
C471        F478   1.358       .  S
C472       C1493   1.409       .  A
C473       C1492   1.409       .  A
C473        C474   1.401       .  A
C473        F480   1.358       .  S
C474        C475   1.409       .  A
C474        F479   1.358       .  S
C475       C1496   1.408       .  A
C476       C1495   1.408   1_455  A
C476        F477   1.358       .  S
C481       C1502   1.408   1_455  A
C481        C486   1.394       .  A
C481        F488   1.358       .  S
C482       C1501   1.408       .  A
C482        C483   1.410       .  A
C483        C484   1.402       .  A
C483        F490   1.358       .  S
C484        C485   1.410       .  A
C484        F489   1.358       .  S
C485       C1506   1.408       .  A
C486       C1505   1.408   1_455  A
C486        F487   1.358       .  S
C491       C1512   1.410       .  A
C491        C496   1.400       .  A
C491        F498   1.358       .  S
C492       C1511   1.410       .  A
C492        C493   1.408   1_655  A
C493        C494   1.399       .  A
C493        F500   1.357       .  S
C494       C1515   1.409   1_455  A
C494        F499   1.358       .  S
C495       C1514   1.409       .  A
C495        C496   1.409       .  A
C496        F497   1.358       .  S
C501       C1522   1.408       .  A
C501        C506   1.397       .  A
C501        F508   1.358       .  S
C502       C1521   1.408   1_455  A
C502        C503   1.410       .  A
C503        C504   1.403       .  A
C503        F510   1.358       .  S
C504        C505   1.410       .  A
C504        F509   1.358       .  S
C505       C1526   1.409   1_455  A
C506       C1525   1.409       .  A
C506        F507   1.358       .  S
N511        N512   1.320       .  A
N511       Mn540   2.194       .  S
N513        N514   1.319       .  A
N513       Mn529   2.201       .  S
N515        N516   1.324       .  A
N515       Mn540   2.225       .  S
N516        C520   1.357   1_565  A
N517        N518   1.317       .  A
N517       Mn529   2.185       .  S
N518        C519   1.351       .  A
C519        C707   1.476       .  S
C520        C700   1.486       .  S
N521       N1547   1.314       .  A
N521        N522   1.321       .  A
N521       Mn551   2.197       .  S
N522        C530   1.354       .  A
N523        N524   1.322       .  A
N523       N1545   1.315   1_455  A
N523       Mn529   2.206       .  S
N524        C531   1.355   1_455  A
N525       N1543   1.315       .  A
N525        N526   1.319       .  A
N525       Mn551   2.204       .  S
N526       C1551   1.354       .  A
N527       N1541   1.314   1_455  A
N527        N528   1.320       .  A
N527       Mn529   2.200       .  S
N528       C1550   1.354   1_455  A
Mn529      Cl553   2.544   1_455  S
C530       N1548   1.354       .  A
C530        C730   1.486       .  S
C531       N1546   1.354       .  A
C531        C757   1.487   1_655  S
N532        N533   1.317       .  A
N532       N1558   1.314   1_455  A
N532       Mn540   2.194       .  S
N533       C1561   1.353   1_455  A
N534       N1556   1.316       .  A
N534        N535   1.320       .  A
N534       Mn552   2.202       .  S
N535       C1562   1.354       .  A
N536       N1554   1.316   1_455  A
N536        N537   1.321       .  A
N536       Mn540   2.217       .  S
N537        C542   1.356   1_455  A
N538       N1552   1.314       .  A
N538        N539   1.321       .  A
N538       Mn552   2.199       .  S
N539        C541   1.355       .  A
C541       N1553   1.353       .  A
C541        C740   1.484       .  S
C542       N1555   1.354       .  A
C542        C747   1.488       .  S
N543        N544   1.319       .  A
N543       Mn551   2.185       .  S
N544        C554   1.351       .  A
N545        N546   1.320       .  A
N545       Mn552   2.202       .  S
N546        C555   1.354   1_565  A
N547        N548   1.320       .  A
N547       Mn551   2.212       .  S
N549        N550   1.320       .  A
N549       Mn552   2.201       .  S
Mn551     Cl1573   2.546       .  S
Mn552     Cl1063   2.547   1_565  S
Cl553     Mn1571   2.546       .  S
Cl553     Mn1062   2.547       .  S
C554        C717   1.480       .  S
C555        C687   1.487       .  S
N556        N557   1.319       .  A
N556       N1582   1.316       .  A
N556       Mn585   2.206       .  S
N557       C1584   1.354       .  A
N558       N1580   1.314   1_455  A
N558        N559   1.319       .  A
N558       Mn574   2.199       .  S
N559       C1585   1.354   1_455  A
N560       N1578   1.314       .  A
N560        N561   1.320       .  A
N560       Mn585   2.197       .  S
N561        C565   1.354       .  A
N562       N1576   1.316   1_455  A
N562        N563   1.322       .  A
N562       Mn574   2.207       .  S
N563        C564   1.356       .  A
C564       N1577   1.354   1_455  A
C564        C760   1.488       .  S
C565       N1579   1.354       .  A
C565        C750   1.485       .  S
N566        N827   1.316       .  A
N566        N567   1.321       .  A
N566       Mn596   2.208       .  S
N567        C575   1.355       .  A
N568        N569   1.319       .  A
N568        N825   1.315   1_554  A
N568       Mn574   2.199       .  S
N569        C831   1.354   1_554  A
N570        N823   1.315       .  A
N570        N571   1.321       .  A
N570       Mn596   2.203       .  S
N571        C576   1.355       .  A
N572        N821   1.316   1_554  A
N572        N573   1.319       .  A
N572       Mn574   2.203       .  S
N573        C830   1.354   1_554  A
Mn574     Cl1873   2.548   1_454  S
C575        N828   1.354       .  A
C575        C667   1.487       .  S
C576        N824   1.354       .  A
C576        C677   1.485       .  S
N577        N578   1.321       .  A
N577        N838   1.316   1_554  A
N577       Mn585   2.200       .  S
N578        C841   1.355       .  A
N579        N836   1.316       .  A
N579        N580   1.319       .  A
N579       Mn597   2.198       .  S
N580        C587   1.353       .  A
N581        N834   1.316   1_554  A
N581        N582   1.319       .  A
N581       Mn585   2.196       .  S
N582        C842   1.353   1_554  A
N583        N832   1.316       .  A
N583        N584   1.318       .  A
N583       Mn597   2.209       .  S
N584        C586   1.355       .  A
Mn585      Cl853   2.549   1_554  S
C586        N833   1.355       .  A
C586        C650   1.487       .  S
C587        N837   1.353       .  A
C587        C660   1.476       .  S
N588        N589   1.320       .  A
N588       N1614   1.317   1_455  A
N588       Mn596   2.206       .  S
N589        C599   1.354   1_455  A
N590        N591   1.321       .  A
N590       N1612   1.315       .  A
N590       Mn597   2.198       .  S
N591        C600   1.354       .  A
N592       N1610   1.315   1_455  A
N592        N593   1.317       .  A
N592       Mn596   2.196       .  S
N593       C1620   1.353   1_455  A
N594       N1608   1.317       .  A
N594        N595   1.321       .  A
N594       Mn597   2.209       .  S
N595       C1619   1.355       .  A
Mn596     Cl1618   2.546   1_455  S
Mn597      Cl598   2.545       .  S
Cl598     Mn1849   2.548       .  S
Cl598      Mn840   2.549       .  S
Cl598     Mn1616   2.546       .  S
C599       N1615   1.355       .  A
C599        C727   1.486       .  S
C600       N1613   1.353       .  A
C600        C737   1.484       .  S
N601        N602   1.319       .  A
N601        N862   1.315       .  A
N601       Mn630   2.215       .  S
N602        C609   1.355       .  A
N603        N860   1.315   1_554  A
N603        N604   1.319       .  A
N603       Mn619   2.200       .  S
N604        C865   1.353   1_554  A
N605        N858   1.315       .  A
N605        N606   1.322       .  A
N605       Mn630   2.207       .  S
N606        C610   1.356       .  A
N607        N856   1.315   1_554  A
N607        N608   1.322       .  A
N607       Mn619   2.196       .  S
N608        C864   1.354       .  A
C609        N863   1.354       .  A
C609        C647   1.488       .  S
C610        N859   1.353       .  A
C610        C670   1.487       .  S
N611        N612   1.318       .  A
N611       Mn641   2.193       .  S
N612        C620   1.353       .  A
N613        N614   1.319       .  A
N613       Mn619   2.202       .  S
N614        C621   1.354   1_565  A
N615        N616   1.320       .  A
N615       Mn641   2.193       .  S
N617        N618   1.317       .  A
N617       Mn619   2.184       .  S
Mn619      Cl898   2.543   1_564  S
C620        C710   1.474       .  S
C621        C720   1.480       .  S
N622        N623   1.323       .  A
N622       Mn630   2.215       .  S
N624        N625   1.318       .  A
N624       Mn642   2.201       .  S
N626        N627   1.324       .  A
N626       Mn630   2.215       .  S
N627        C632   1.357       .  A
N628        N629   1.318       .  A
N628       Mn642   2.194       .  S
N629        C631   1.352       .  A
Mn630      Cl643   2.549   1_565  S
C631        C697   1.485       .  S
C632        C690   1.489       .  S
N633        N634   1.319       .  A
N633        N894   1.315   1_554  A
N633       Mn641   2.196       .  S
N634        C899   1.353   1_554  A
N635        N636   1.322       .  A
N635        N892   1.314       .  A
N635       Mn642   2.206       .  S
N636        C645   1.356       .  A
N637        N890   1.314   1_554  A
N637        N638   1.318       .  A
N637       Mn641   2.194       .  S
N638        C900   1.353   1_554  A
N639        N888   1.315       .  A
N639        N640   1.320       .  A
N639       Mn642   2.200       .  S
N640        C644   1.354       .  A
Cl643      Mn874   2.543   1_545  S
C644        N889   1.353       .  A
C644        C657   1.478       .  S
C645        N893   1.353       .  A
C645        C680   1.485       .  S
C646        C647   1.407       .  A
C646        C651   1.395       .  A
C646        F653   1.357       .  S
C647        C903   1.411       .  A
C648        C902   1.411       .  A
C648        C649   1.404       .  A
C648        F655   1.358       .  S
C649        C905   1.411       .  A
C649        F654   1.358       .  S
C650        C904   1.411       .  A
C650        C651   1.408       .  A
C651        F652   1.357       .  S
C656        C657   1.407       .  A
C656        C661   1.398       .  A
C656        F663   1.358       .  S
C657        C913   1.408       .  A
C658        C912   1.408   1_554  A
C658        C659   1.396       .  A
C658        F665   1.358       .  S
C659        C915   1.406   1_554  A
C659        F664   1.358       .  S
C660        C914   1.406       .  A
C660        C661   1.406       .  A
C661        F662   1.358       .  S
C666        C667   1.408       .  A
C666        C671   1.397       .  A
C666        F928   1.358       .  S
C667        C668   1.410       .  A
C668        C669   1.402       .  A
C668        F675   1.358       .  S
C669        C670   1.409       .  A
C669        F674   1.358       .  S
C670        C671   1.409       .  A
C671        F927   1.358       .  S
F672        C926   1.358       .  S
F673        C921   1.358       .  S
C676        C677   1.409       .  A
C676        C681   1.401       .  A
C676        F683   1.358       .  S
C677        C933   1.408       .  A
C678        C932   1.408   1_554  A
C678        C679   1.397       .  A
C678        F685   1.358       .  S
C679        C935   1.409   1_554  A
C679        F684   1.358       .  S
C680        C934   1.409       .  A
C680        C681   1.409       .  A
C681        F682   1.358       .  S
C686        C687   1.406       .  A
C686        C691   1.397       .  A
C686        F693   1.358       .  S
C687        C688   1.411   1_545  A
C688        C689   1.404       .  A
C688        F695   1.358       .  S
C689        C690   1.409       .  A
C689        F694   1.358       .  S
C690        C691   1.410   1_565  A
C691        F692   1.357       .  S
C696        C697   1.408       .  A
C696        C701   1.397       .  A
C696        F703   1.358       .  S
C698        C699   1.404       .  A
C698        F705   1.358       .  S
C699        C700   1.408   1_565  A
C699        F704   1.357       .  S
C701        F702   1.358       .  S
C706        C707   1.407       .  A
C706        C711   1.397       .  A
C707        C708   1.408       .  A
C708        C709   1.393       .  A
C708        F715   1.358       .  S
C709        C710   1.405       .  A
C709        F714   1.358       .  S
C710        C711   1.407       .  A
C716        C717   1.410       .  A
C716        C721   1.399       .  A
C716        F723   1.358       .  S
C718        C719   1.396       .  A
C718        F725   1.357       .  S
C719        C720   1.407   1_565  A
C719        F724   1.357       .  S
C721        F722   1.358       .  S
C726        C727   1.408   1_455  A
C726        C731   1.399       .  A
C726        F733   1.358       .  S
C727       C1748   1.409       .  A
C728       C1747   1.409       .  A
C728        C729   1.401       .  A
C728        F735   1.358       .  S
C729        C730   1.409       .  A
C729        F734   1.358       .  S
C730       C1751   1.408       .  A
C731       C1750   1.408   1_455  A
C731        F732   1.358       .  S
C736       C1757   1.408   1_455  A
C736        C741   1.394       .  A
C736        F743   1.358       .  S
C737       C1756   1.408       .  A
C737        C738   1.410       .  A
C738        C739   1.402       .  A
C738        F745   1.358       .  S
C739        C740   1.410       .  A
C739        F744   1.358       .  S
C740       C1761   1.408       .  A
C741       C1760   1.408   1_455  A
C741        F742   1.358       .  S
C746       C1767   1.410       .  A
C746        C751   1.400       .  A
C746        F753   1.358       .  S
C747       C1766   1.410       .  A
C747        C748   1.408   1_655  A
C748        C749   1.399       .  A
C748        F755   1.357       .  S
C749       C1770   1.409   1_455  A
C749        F754   1.358       .  S
C750       C1769   1.409       .  A
C750        C751   1.409       .  A
C751        F752   1.358       .  S
C756       C1777   1.408       .  A
C756        C761   1.397       .  A
C756        F763   1.358       .  S
C757       C1776   1.408   1_455  A
C757        C758   1.410       .  A
C758        C759   1.402       .  A
C758        F765   1.358       .  S
C759        C760   1.410       .  A
C759        F764   1.358       .  S
C760       C1781   1.409   1_455  A
C761       C1780   1.409       .  A
C761        F762   1.358       .  S
N766        N767   1.320       .  A
N766       Mn795   2.194       .  S
N768        N769   1.319       .  A
N768       Mn784   2.202       .  S
N770        N771   1.324       .  A
N770       Mn795   2.225       .  S
N771        C775   1.357   1_565  A
N772        N773   1.317       .  A
N772       Mn784   2.185       .  S
N773        C774   1.351       .  A
C774        C962   1.476       .  S
C775        C955   1.486       .  S
N776       N1802   1.314       .  A
N776        N777   1.321       .  A
N776       Mn806   2.197       .  S
N777        C785   1.354       .  A
N778        N779   1.322       .  A
N778       N1800   1.315   1_455  A
N778       Mn784   2.206       .  S
N779        C786   1.355   1_455  A
N780       N1798   1.315       .  A
N780        N781   1.319       .  A
N780       Mn806   2.204       .  S
N781       C1806   1.354       .  A
N782       N1796   1.314   1_455  A
N782        N783   1.320       .  A
N782       Mn784   2.200       .  S
N783       C1805   1.354   1_455  A
Mn784      Cl808   2.544   1_455  S
C785       N1803   1.354       .  A
C785        C985   1.486       .  S
C786       N1801   1.354       .  A
C786       C1012   1.487   1_655  S
N787        N788   1.317       .  A
N787       N1813   1.314   1_455  A
N787       Mn795   2.194       .  S
N788       C1816   1.353   1_455  A
N789       N1811   1.316       .  A
N789        N790   1.320       .  A
N789       Mn807   2.202       .  S
N790       C1817   1.354       .  A
N791       N1809   1.316   1_455  A
N791        N792   1.321       .  A
N791       Mn795   2.217       .  S
N792        C797   1.356   1_455  A
N793       N1807   1.314       .  A
N793        N794   1.321       .  A
N793       Mn807   2.199       .  S
N794        C796   1.355       .  A
C796       N1808   1.353       .  A
C796        C995   1.484       .  S
C797       N1810   1.354       .  A
C797       C1002   1.488       .  S
N798        N799   1.319       .  A
N798       Mn806   2.185       .  S
N799        C809   1.351       .  A
N800        N801   1.320       .  A
N800       Mn807   2.202       .  S
N801        C810   1.354   1_565  A
N802        N803   1.320       .  A
N802       Mn806   2.212       .  S
N804        N805   1.320       .  A
N804       Mn807   2.201       .  S
Mn806     Cl1828   2.546       .  S
Mn807     Cl1318   2.547   1_565  S
Cl808     Mn1826   2.546       .  S
Cl808     Mn1317   2.547       .  S
C809        C972   1.480       .  S
C810        C942   1.487       .  S
N811        N812   1.319       .  A
N811       N1837   1.316       .  A
N811       Mn840   2.206       .  S
N812       C1839   1.354       .  A
N813       N1835   1.314   1_455  A
N813        N814   1.319       .  A
N813       Mn829   2.199       .  S
N814       C1840   1.354   1_455  A
N815       N1833   1.314       .  A
N815        N816   1.320       .  A
N815       Mn840   2.197       .  S
N816        C820   1.354       .  A
N817       N1831   1.316   1_455  A
N817        N818   1.322       .  A
N817       Mn829   2.207       .  S
N818        C819   1.356       .  A
C819       N1832   1.354   1_455  A
C819       C1015   1.488       .  S
C820       N1834   1.354       .  A
C820       C1005   1.485       .  S
N821        N822   1.321       .  A
N821       Mn851   2.208       .  S
N822        C830   1.355       .  A
N823        N824   1.319       .  A
N823       Mn829   2.199       .  S
N825        N826   1.320       .  A
N825       Mn851   2.203       .  S
N826        C831   1.355       .  A
N827        N828   1.319       .  A
N827       Mn829   2.203       .  S
Mn829     Cl1618   2.548   1_455  S
C830        C922   1.487       .  S
C831        C932   1.485       .  S
N832        N833   1.321       .  A
N832       Mn840   2.200       .  S
N834        N835   1.319       .  A
N834       Mn852   2.198       .  S
N835        C842   1.353       .  A
N836        N837   1.319       .  A
N836       Mn840   2.196       .  S
N838        N839   1.318       .  A
N838       Mn852   2.209       .  S
N839        C841   1.355   1_556  A
C841        C905   1.487       .  S
C842        C915   1.476       .  S
N843        N844   1.320       .  A
N843       N1869   1.317   1_455  A
N843       Mn851   2.206       .  S
N844        C854   1.354   1_455  A
N845        N846   1.321       .  A
N845       N1867   1.315       .  A
N845       Mn852   2.198       .  S
N846        C855   1.354       .  A
N847       N1865   1.315   1_455  A
N847        N848   1.317       .  A
N847       Mn851   2.196       .  S
N848       C1875   1.353   1_455  A
N849       N1863   1.317       .  A
N849        N850   1.321       .  A
N849       Mn852   2.209       .  S
N850       C1874   1.355       .  A
Mn851     Cl1873   2.546   1_455  S
Mn852      Cl853   2.545       .  S
Cl853     Mn1594   2.548   1_556  S
Cl853     Mn1871   2.546       .  S
C854       N1870   1.355       .  A
C854        C982   1.486       .  S
C855       N1868   1.353       .  A
C855        C992   1.484       .  S
N856        N857   1.319       .  A
N856       Mn885   2.215       .  S
N857        C864   1.355   1_556  A
N858        N859   1.319       .  A
N858       Mn874   2.200       .  S
N860        N861   1.322       .  A
N860       Mn885   2.207       .  S
N861        C865   1.356       .  A
N862        N863   1.322       .  A
N862       Mn874   2.196       .  S
C864        C902   1.488       .  S
C865        C925   1.487       .  S
N866        N867   1.318       .  A
N866       Mn896   2.193       .  S
N867        C875   1.353       .  A
N868        N869   1.319       .  A
N868       Mn874   2.202       .  S
N869        C876   1.354   1_565  A
N870        N871   1.320       .  A
N870       Mn896   2.193       .  S
N872        N873   1.317       .  A
N872       Mn874   2.184       .  S
C875        C965   1.473       .  S
C876        C975   1.480       .  S
N877        N878   1.323       .  A
N877       Mn885   2.215       .  S
N879        N880   1.318       .  A
N879       Mn897   2.201       .  S
N881        N882   1.324       .  A
N881       Mn885   2.215       .  S
N882        C887   1.357       .  A
N883        N884   1.318       .  A
N883       Mn897   2.194       .  S
N884        C886   1.352       .  A
Mn885      Cl898   2.549   1_565  S
C886        C952   1.485       .  S
C887        C945   1.489       .  S
N888        N889   1.319       .  A
N888       Mn896   2.196       .  S
N890        N891   1.322       .  A
N890       Mn897   2.206       .  S
N891        C900   1.356       .  A
N892        N893   1.318       .  A
N892       Mn896   2.194       .  S
N894        N895   1.320       .  A
N894       Mn897   2.200       .  S
N895        C899   1.354       .  A
C899        C912   1.478       .  S
C900        C935   1.485       .  S
C901        C902   1.407   1_556  A
C901        C906   1.395       .  A
C901        F908   1.357       .  S
C903        C904   1.404       .  A
C903        F910   1.358       .  S
C904        F909   1.358       .  S
C905        C906   1.408   1_554  A
C906        F907   1.357       .  S
C911        C912   1.407       .  A
C911        C916   1.398       .  A
C911        F918   1.358       .  S
C913        C914   1.396       .  A
C913        F920   1.358       .  S
C914        F919   1.358       .  S
C915        C916   1.406       .  A
C916        F917   1.358       .  S
C921        C922   1.408   1_554  A
C921        C926   1.397       .  A
C922        C923   1.410       .  A
C923        C924   1.402       .  A
C923        F930   1.358       .  S
C924        C925   1.409       .  A
C924        F929   1.358       .  S
C925        C926   1.409   1_556  A
C931        C932   1.409       .  A
C931        C936   1.401       .  A
C931        F938   1.358       .  S
C933        C934   1.397       .  A
C933        F940   1.358       .  S
C934        F939   1.358       .  S
C935        C936   1.409       .  A
C936        F937   1.358       .  S
C941        C942   1.406       .  A
C941        C946   1.397       .  A
C941        F948   1.358       .  S
C942        C943   1.411   1_545  A
C943        C944   1.404       .  A
C943        F950   1.358       .  S
C944        C945   1.409       .  A
C944        F949   1.358       .  S
C945        C946   1.410   1_565  A
C946        F947   1.357       .  S
C951        C952   1.408       .  A
C951        C956   1.397       .  A
C951        F958   1.358       .  S
C953        C954   1.404       .  A
C953        F960   1.358       .  S
C954        C955   1.408   1_565  A
C954        F959   1.357       .  S
C956        F957   1.358       .  S
C961        C962   1.407       .  A
C961        C966   1.397       .  A
C962        C963   1.408       .  A
C963        C964   1.393       .  A
C963        F970   1.358       .  S
C964        C965   1.405       .  A
C964        F969   1.358       .  S
C965        C966   1.407       .  A
C971        C972   1.410       .  A
C971        C976   1.399       .  A
C971        F978   1.358       .  S
C973        C974   1.396       .  A
C973        F980   1.357       .  S
C974        C975   1.407   1_565  A
C974        F979   1.357       .  S
C976        F977   1.358       .  S
C981        C982   1.408   1_455  A
C981        C986   1.399       .  A
C981        F988   1.358       .  S
C982       C2003   1.409       .  A
C983       C2002   1.409       .  A
C983        C984   1.401       .  A
C983        F990   1.358       .  S
C984        C985   1.409       .  A
C984        F989   1.358       .  S
C985       C2006   1.408       .  A
C986       C2005   1.408   1_455  A
C986        F987   1.358       .  S
C991       C2012   1.408   1_455  A
C991        C996   1.394       .  A
C991        F998   1.358       .  S
C992       C2011   1.408       .  A
C992        C993   1.410       .  A
C993        C994   1.402       .  A
C993       F1000   1.358       .  S
C994        C995   1.410       .  A
C994        F999   1.358       .  S
C995       C2016   1.408       .  A
C996       C2015   1.408   1_455  A
C996        F997   1.358       .  S
C1001      C2022   1.410       .  A
C1001      C1006   1.400       .  A
C1001      F1008   1.358       .  S
C1002      C2021   1.410       .  A
C1002      C1003   1.408   1_655  A
C1003      C1004   1.399       .  A
C1003      F1010   1.357       .  S
C1004      C2025   1.409   1_455  A
C1004      F1009   1.358       .  S
C1005      C2024   1.409       .  A
C1005      C1006   1.409       .  A
C1006      F1007   1.358       .  S
C1011      C2032   1.408       .  A
C1011      C1016   1.397       .  A
C1011      F1018   1.358       .  S
C1012      C2031   1.408   1_455  A
C1012      C1013   1.410       .  A
C1013      C1014   1.403       .  A
C1013      F1020   1.358       .  S
C1014      C1015   1.410       .  A
C1014      F1019   1.358       .  S
C1015      C2036   1.409   1_455  A
C1016      C2035   1.409       .  A
C1016      F1017   1.358       .  S
N1021      N1022   1.320       .  A
N1021      N1537   1.313       .  A
N1021     Mn1050   2.194       .  S
N1022      C1539   1.354       .  A
N1023      N1535   1.317   1_545  A
N1023      N1024   1.319       .  A
N1023     Mn1039   2.201       .  S
N1024      C1540   1.352       .  A
N1025      N1533   1.317       .  A
N1025      N1026   1.324       .  A
N1025     Mn1050   2.224       .  S
N1026      C1030   1.357       .  A
N1027      N1531   1.313   1_545  A
N1027      N1028   1.317       .  A
N1027     Mn1039   2.185       .  S
N1028      C1029   1.351       .  A
C1029      N1532   1.354   1_545  A
C1029      C1217   1.476       .  S
C1030      N1534   1.352       .  A
C1030      C1210   1.486       .  S
N1031      N1032   1.321       .  A
N1031     Mn1061   2.197       .  S
N1032      C1040   1.354       .  A
N1033      N1034   1.322       .  A
N1033     Mn1039   2.206       .  S
N1034      C1041   1.355       .  A
N1035      N1036   1.319       .  A
N1035     Mn1061   2.204       .  S
N1037      N1038   1.320       .  A
N1037     Mn1039   2.200       .  S
Mn1039    Cl1063   2.544       .  S
C1040      C1240   1.486       .  S
C1041      C1267   1.487       .  S
N1042      N1043   1.317       .  A
N1042     Mn1050   2.194       .  S
N1044      N1045   1.320       .  A
N1044     Mn1062   2.202       .  S
N1046      N1047   1.321       .  A
N1046     Mn1050   2.216       .  S
N1047      C1052   1.356       .  A
N1048      N1049   1.322       .  A
N1048     Mn1062   2.199       .  S
N1049      C1051   1.355       .  A
Mn1050    Cl1573   2.546       .  S
C1051      C1250   1.484       .  S
C1052      C1257   1.488       .  S
N1053      N1054   1.319       .  A
N1053      N1569   1.313   1_545  A
N1053     Mn1061   2.185       .  S
N1054      C1064   1.351       .  A
N1055      N1056   1.320       .  A
N1055      N1567   1.317       .  A
N1055     Mn1062   2.202       .  S
N1056      C1065   1.354       .  A
N1057      N1565   1.317   1_545  A
N1057      N1058   1.320       .  A
N1057     Mn1061   2.212       .  S
N1058      C1575   1.356       .  A
N1059      N1563   1.313       .  A
N1059      N1060   1.320       .  A
N1059     Mn1062   2.201       .  S
N1060      C1574   1.355       .  A
Cl1063    Mn1560   2.546   1_545  S
C1064      N1570   1.355   1_545  A
C1064      C1227   1.480       .  S
C1065      N1568   1.356       .  A
C1065      C1197   1.487       .  S
N1066      N1067   1.319       .  A
N1066     Mn1095   2.206       .  S
N1068      N1069   1.319       .  A
N1068     Mn1084   2.199       .  S
N1070      N1071   1.320       .  A
N1070     Mn1095   2.197       .  S
N1071      C1075   1.354       .  A
N1072      N1073   1.322       .  A
N1072     Mn1084   2.208       .  S
N1073      C1074   1.356       .  A
C1074      C1270   1.488       .  S
C1075      C1260   1.485       .  S
N1076      N1337   1.316       .  A
N1076      N1077   1.321       .  A
N1076     Mn1106   2.208       .  S
N1077      C1085   1.355       .  A
N1078      N1079   1.319       .  A
N1078      N1335   1.315   1_554  A
N1078     Mn1084   2.199       .  S
N1079      C1341   1.354   1_554  A
N1080      N1333   1.315       .  A
N1080      N1081   1.321       .  A
N1080     Mn1106   2.203       .  S
N1081      C1086   1.355       .  A
N1082      N1331   1.316   1_554  A
N1082      N1083   1.319       .  A
N1082     Mn1084   2.203       .  S
N1083      C1340   1.354   1_554  A
C1085      N1338   1.354       .  A
C1085      C1177   1.487       .  S
C1086      N1334   1.354       .  A
C1086      C1187   1.485       .  S
N1087      N1088   1.321       .  A
N1087      N1348   1.316   1_554  A
N1087     Mn1095   2.200       .  S
N1088      C1351   1.355       .  A
N1089      N1346   1.316       .  A
N1089      N1090   1.319       .  A
N1089     Mn1107   2.198       .  S
N1090      C1097   1.353       .  A
N1091      N1344   1.316   1_554  A
N1091      N1092   1.319       .  A
N1091     Mn1095   2.196       .  S
N1092      C1352   1.353   1_554  A
N1093      N1342   1.316       .  A
N1093      N1094   1.318       .  A
N1093     Mn1107   2.209       .  S
N1094      C1096   1.355       .  A
Mn1095    Cl1363   2.549   1_554  S
C1096      N1343   1.355       .  A
C1096      C1160   1.487       .  S
C1097      N1347   1.353       .  A
C1097      C1170   1.476       .  S
N1098      N1099   1.320       .  A
N1098     Mn1106   2.206       .  S
N1099      C1109   1.354       .  A
N1100      N1101   1.321       .  A
N1100     Mn1107   2.198       .  S
N1101      C1110   1.354       .  A
N1102      N1103   1.317       .  A
N1102     Mn1106   2.196       .  S
N1104      N1105   1.321       .  A
N1104     Mn1107   2.209       .  S
Mn1107    Cl1108   2.545       .  S
Cl1108    Mn1350   2.549       .  S
C1109      C1237   1.486       .  S
C1110      C1247   1.484       .  S
N1111      N1112   1.319       .  A
N1111      N1372   1.315       .  A
N1111     Mn1140   2.215       .  S
N1112      C1119   1.355       .  A
N1113      N1370   1.315   1_554  A
N1113      N1114   1.319       .  A
N1113     Mn1129   2.200       .  S
N1114      C1375   1.353   1_554  A
N1115      N1368   1.315       .  A
N1115      N1116   1.322       .  A
N1115     Mn1140   2.207       .  S
N1116      C1120   1.356       .  A
N1117      N1366   1.315   1_554  A
N1117      N1118   1.322       .  A
N1117     Mn1129   2.196       .  S
N1118      C1374   1.354       .  A
C1119      N1373   1.354       .  A
C1119      C1157   1.488       .  S
C1120      N1369   1.353       .  A
C1120      C1180   1.488       .  S
N1121      N1637   1.314   1_545  A
N1121      N1122   1.318       .  A
N1121     Mn1151   2.193       .  S
N1122      C1130   1.353       .  A
N1123      N1124   1.319       .  A
N1123      N1635   1.315       .  A
N1123     Mn1129   2.202       .  S
N1124      C1131   1.354       .  A
N1125      N1633   1.315   1_545  A
N1125      N1126   1.320       .  A
N1125     Mn1151   2.193       .  S
N1126      C1641   1.353       .  A
N1127      N1631   1.314       .  A
N1127      N1128   1.317       .  A
N1127     Mn1129   2.184       .  S
N1128      C1640   1.350       .  A
Mn1129    Cl1408   2.543   1_554  S
C1130      N1638   1.350   1_545  A
C1130      C1220   1.473       .  S
C1131      N1636   1.353       .  A
C1131      C1230   1.480       .  S
N1132      N1133   1.323       .  A
N1132      N1648   1.315       .  A
N1132     Mn1140   2.215       .  S
N1133      C1651   1.357       .  A
N1134      N1646   1.316   1_545  A
N1134      N1135   1.318       .  A
N1134     Mn1152   2.201       .  S
N1135      C1652   1.353   1_545  A
N1136      N1644   1.316       .  A
N1136      N1137   1.324       .  A
N1136     Mn1140   2.215       .  S
N1137      C1142   1.357       .  A
N1138      N1642   1.315   1_545  A
N1138      N1139   1.318       .  A
N1138     Mn1152   2.194       .  S
N1139      C1141   1.352       .  A
Mn1140    Cl1153   2.549       .  S
C1141      N1643   1.357   1_545  A
C1141      C1207   1.485       .  S
C1142      N1645   1.353       .  A
C1142      C1200   1.489       .  S
N1143      N1144   1.319       .  A
N1143      N1404   1.315   1_554  A
N1143     Mn1151   2.196       .  S
N1144      C1409   1.353   1_554  A
N1145      N1146   1.322       .  A
N1145      N1402   1.314       .  A
N1145     Mn1152   2.206       .  S
N1146      C1155   1.356       .  A
N1147      N1400   1.314   1_554  A
N1147      N1148   1.318       .  A
N1147     Mn1151   2.194       .  S
N1148      C1410   1.353   1_554  A
N1149      N1398   1.315       .  A
N1149      N1150   1.320       .  A
N1149     Mn1152   2.200       .  S
N1150      C1154   1.354       .  A
Mn1151    Cl1918   2.546   1_554  S
Mn1152    Cl1663   2.543       .  S
Cl1153    Mn1384   2.543       .  S
Cl1153    Mn1916   2.546       .  S
Cl1153    Mn1662   2.543       .  S
C1154      N1399   1.353       .  A
C1154      C1167   1.478       .  S
C1155      N1403   1.353       .  A
C1155      C1190   1.485       .  S
C1156      C1157   1.407       .  A
C1156      C1161   1.396       .  A
C1156      F1163   1.357       .  S
C1157      C1413   1.411       .  A
C1158      C1412   1.411       .  A
C1158      C1159   1.404       .  A
C1158      F1165   1.358       .  S
C1159      C1415   1.411       .  A
C1159      F1164   1.358       .  S
C1160      C1414   1.411       .  A
C1160      C1161   1.408       .  A
C1161      F1162   1.357       .  S
C1166      C1167   1.407       .  A
C1166      C1171   1.398       .  A
C1166      F1173   1.358       .  S
C1167      C1423   1.408       .  A
C1168      C1422   1.408   1_554  A
C1168      C1169   1.396       .  A
C1168      F1175   1.358       .  S
C1169      C1425   1.406   1_554  A
C1169      F1174   1.358       .  S
C1170      C1424   1.406       .  A
C1170      C1171   1.406       .  A
C1171      F1172   1.358       .  S
C1176      C1177   1.408       .  A
C1176      C1181   1.398       .  A
C1176      F1438   1.358       .  S
C1177      C1178   1.410       .  A
C1178      C1179   1.402       .  A
C1178      F1185   1.358       .  S
C1179      C1180   1.409       .  A
C1179      F1184   1.358       .  S
C1180      C1181   1.409       .  A
C1181      F1437   1.358       .  S
F1182      C1436   1.358       .  S
F1183      C1431   1.358       .  S
C1186      C1187   1.409       .  A
C1186      C1191   1.401       .  A
C1186      F1193   1.358       .  S
C1187      C1443   1.408       .  A
C1188      C1442   1.408   1_554  A
C1188      C1189   1.397       .  A
C1188      F1195   1.358       .  S
C1189      C1445   1.409   1_554  A
C1189      F1194   1.358       .  S
C1190      C1444   1.409       .  A
C1190      C1191   1.409       .  A
C1191      F1192   1.358       .  S
C1196      C1197   1.406       .  A
C1196      C1201   1.397       .  A
C1196      F1203   1.358       .  S
C1197      C1198   1.411       .  A
C1198      C1199   1.404       .  A
C1198      F1205   1.358       .  S
C1199      C1200   1.409       .  A
C1199      F1204   1.358       .  S
C1200      C1201   1.410       .  A
C1201      F1202   1.357       .  S
C1206      C1207   1.408       .  A
C1206      C1211   1.398       .  A
C1206      F1213   1.358       .  S
C1207      C1718   1.408   1_545  A
C1208      C1717   1.408       .  A
C1208      C1209   1.404       .  A
C1208      F1215   1.358       .  S
C1209      C1210   1.408       .  A
C1209      F1214   1.357       .  S
C1210      C1721   1.408       .  A
C1211      C1720   1.408       .  A
C1211      F1212   1.358       .  S
C1216      C1217   1.407   1_565  A
C1216      C1221   1.397       .  A
C1216      F1733   1.358       .  S
C1217      C1218   1.408       .  A
C1218      C1219   1.393       .  A
C1218      F1225   1.358       .  S
C1219      C1220   1.405       .  A
C1219      F1224   1.358       .  S
C1220      C1221   1.407   1_545  A
C1221      F1732   1.358       .  S
F1222      C1731   1.358       .  S
F1223      C1726   1.358       .  S
C1226      C1227   1.410       .  A
C1226      C1231   1.399       .  A
C1226      F1233   1.358       .  S
C1227      C1738   1.406   1_545  A
C1228      C1737   1.406       .  A
C1228      C1229   1.395       .  A
C1228      F1235   1.357       .  S
C1229      C1230   1.407       .  A
C1229      F1234   1.357       .  S
C1230      C1741   1.408       .  A
C1231      C1740   1.408       .  A
C1231      F1232   1.358       .  S
C1236      C1237   1.408       .  A
C1236      C1241   1.399       .  A
C1236      F1243   1.358       .  S
C1238      C1239   1.401       .  A
C1238      F1245   1.358       .  S
C1239      C1240   1.409       .  A
C1239      F1244   1.358       .  S
C1241      F1242   1.358       .  S
C1246      C1251   1.394       .  A
C1246      F1253   1.358       .  S
C1247      C1248   1.410       .  A
C1248      C1249   1.402       .  A
C1248      F1255   1.358       .  S
C1249      C1250   1.410       .  A
C1249      F1254   1.358       .  S
C1251      F1252   1.358       .  S
C1256      C1261   1.400       .  A
C1256      F1263   1.358       .  S
C1257      C1258   1.408       .  A
C1258      C1259   1.399       .  A
C1258      F1265   1.357       .  S
C1259      F1264   1.358       .  S
C1260      C1261   1.409       .  A
C1261      F1262   1.358       .  S
C1266      C1271   1.397       .  A
C1266      F1273   1.358       .  S
C1267      C1268   1.410       .  A
C1268      C1269   1.403       .  A
C1268      F1275   1.358       .  S
C1269      C1270   1.410       .  A
C1269      F1274   1.358       .  S
C1271      F1272   1.358       .  S
N1276      N1277   1.320       .  A
N1276      N1792   1.313       .  A
N1276     Mn1305   2.194       .  S
N1277      C1794   1.354       .  A
N1278      N1790   1.317   1_545  A
N1278      N1279   1.319       .  A
N1278     Mn1294   2.202       .  S
N1279      C1795   1.352       .  A
N1280      N1788   1.317       .  A
N1280      N1281   1.324       .  A
N1280     Mn1305   2.224       .  S
N1281      C1285   1.357       .  A
N1282      N1786   1.313   1_545  A
N1282      N1283   1.317       .  A
N1282     Mn1294   2.185       .  S
N1283      C1284   1.351       .  A
C1284      N1787   1.354   1_545  A
C1284      C1472   1.476       .  S
C1285      N1789   1.352       .  A
C1285      C1465   1.486       .  S
N1286      N1287   1.321       .  A
N1286     Mn1316   2.197       .  S
N1287      C1295   1.354       .  A
N1288      N1289   1.322       .  A
N1288     Mn1294   2.206       .  S
N1289      C1296   1.355       .  A
N1290      N1291   1.319       .  A
N1290     Mn1316   2.204       .  S
N1292      N1293   1.320       .  A
N1292     Mn1294   2.200       .  S
Mn1294    Cl1318   2.544       .  S
C1295      C1495   1.486       .  S
C1296      C1522   1.487       .  S
N1297      N1298   1.317       .  A
N1297     Mn1305   2.194       .  S
N1299      N1300   1.320       .  A
N1299     Mn1317   2.202       .  S
N1301      N1302   1.321       .  A
N1301     Mn1305   2.216       .  S
N1302      C1307   1.356       .  A
N1303      N1304   1.321       .  A
N1303     Mn1317   2.199       .  S
N1304      C1306   1.355       .  A
Mn1305    Cl1828   2.546       .  S
C1306      C1505   1.484       .  S
C1307      C1512   1.488       .  S
N1308      N1309   1.319       .  A
N1308      N1824   1.313   1_545  A
N1308     Mn1316   2.185       .  S
N1309      C1319   1.351       .  A
N1310      N1311   1.320       .  A
N1310      N1822   1.317       .  A
N1310     Mn1317   2.202       .  S
N1311      C1320   1.354       .  A
N1312      N1820   1.317   1_545  A
N1312      N1313   1.320       .  A
N1312     Mn1316   2.212       .  S
N1313      C1830   1.356       .  A
N1314      N1818   1.313       .  A
N1314      N1315   1.320       .  A
N1314     Mn1317   2.201       .  S
N1315      C1829   1.355       .  A
Cl1318    Mn1815   2.546   1_545  S
C1319      N1825   1.355   1_545  A
C1319      C1482   1.480       .  S
C1320      N1823   1.356       .  A
C1320      C1452   1.487       .  S
N1321      N1322   1.319       .  A
N1321     Mn1350   2.206       .  S
N1323      N1324   1.319       .  A
N1323     Mn1339   2.199       .  S
N1325      N1326   1.320       .  A
N1325     Mn1350   2.197       .  S
N1326      C1330   1.354       .  A
N1327      N1328   1.322       .  A
N1327     Mn1339   2.208       .  S
N1328      C1329   1.356       .  A
C1329      C1525   1.488       .  S
C1330      C1515   1.485       .  S
N1331      N1332   1.321       .  A
N1331     Mn1361   2.208       .  S
N1332      C1340   1.355       .  A
N1333      N1334   1.319       .  A
N1333     Mn1339   2.199       .  S
N1335      N1336   1.321       .  A
N1335     Mn1361   2.203       .  S
N1336      C1341   1.355       .  A
N1337      N1338   1.319       .  A
N1337     Mn1339   2.203       .  S
C1340      C1432   1.487       .  S
C1341      C1442   1.485       .  S
N1342      N1343   1.321       .  A
N1342     Mn1350   2.200       .  S
N1344      N1345   1.319       .  A
N1344     Mn1362   2.198       .  S
N1345      C1352   1.353       .  A
N1346      N1347   1.319       .  A
N1346     Mn1350   2.196       .  S
N1348      N1349   1.318       .  A
N1348     Mn1362   2.209       .  S
N1349      C1351   1.355   1_556  A
C1351      C1415   1.487       .  S
C1352      C1425   1.476       .  S
N1353      N1354   1.320       .  A
N1353     Mn1361   2.206       .  S
N1354      C1364   1.354       .  A
N1355      N1356   1.321       .  A
N1355     Mn1362   2.198       .  S
N1356      C1365   1.354       .  A
N1357      N1358   1.317       .  A
N1357     Mn1361   2.196       .  S
N1359      N1360   1.321       .  A
N1359     Mn1362   2.209       .  S
Mn1362    Cl1363   2.545       .  S
C1364      C1492   1.486       .  S
C1365      C1502   1.484       .  S
N1366      N1367   1.319       .  A
N1366     Mn1395   2.215       .  S
N1367      C1374   1.355   1_556  A
N1368      N1369   1.319       .  A
N1368     Mn1384   2.200       .  S
N1370      N1371   1.322       .  A
N1370     Mn1395   2.207       .  S
N1371      C1375   1.356       .  A
N1372      N1373   1.322       .  A
N1372     Mn1384   2.196       .  S
C1374      C1412   1.488       .  S
C1375      C1435   1.487       .  S
N1376      N1892   1.314   1_545  A
N1376      N1377   1.318       .  A
N1376     Mn1406   2.193       .  S
N1377      C1385   1.353       .  A
N1378      N1379   1.319       .  A
N1378      N1890   1.315       .  A
N1378     Mn1384   2.202       .  S
N1379      C1386   1.354       .  A
N1380      N1888   1.315   1_545  A
N1380      N1381   1.320       .  A
N1380     Mn1406   2.193       .  S
N1381      C1896   1.353       .  A
N1382      N1886   1.314       .  A
N1382      N1383   1.317       .  A
N1382     Mn1384   2.183       .  S
N1383      C1895   1.350       .  A
C1385      N1893   1.350   1_545  A
C1385      C1475   1.473       .  S
C1386      N1891   1.353       .  A
C1386      C1485   1.480       .  S
N1387      N1388   1.323       .  A
N1387      N1903   1.315       .  A
N1387     Mn1395   2.215       .  S
N1388      C1906   1.357       .  A
N1389      N1901   1.316   1_545  A
N1389      N1390   1.318       .  A
N1389     Mn1407   2.201       .  S
N1390      C1907   1.353   1_545  A
N1391      N1899   1.316       .  A
N1391      N1392   1.324       .  A
N1391     Mn1395   2.215       .  S
N1392      C1397   1.357       .  A
N1393      N1897   1.315   1_545  A
N1393      N1394   1.318       .  A
N1393     Mn1407   2.194       .  S
N1394      C1396   1.352       .  A
Mn1395    Cl1408   2.549       .  S
C1396      N1898   1.357   1_545  A
C1396      C1462   1.485       .  S
C1397      N1900   1.353       .  A
C1397      C1455   1.489       .  S
N1398      N1399   1.319       .  A
N1398     Mn1406   2.196       .  S
N1400      N1401   1.322       .  A
N1400     Mn1407   2.206       .  S
N1401      C1410   1.356       .  A
N1402      N1403   1.318       .  A
N1402     Mn1406   2.194       .  S
N1404      N1405   1.320       .  A
N1404     Mn1407   2.200       .  S
N1405      C1409   1.354       .  A
Mn1406    Cl1663   2.546       .  S
Mn1407    Cl1918   2.543       .  S
Cl1408    Mn1661   2.546   1_556  S
Cl1408    Mn1917   2.543       .  S
C1409      C1422   1.478       .  S
C1410      C1445   1.485       .  S
C1411      C1412   1.407   1_556  A
C1411      C1416   1.396       .  A
C1411      F1418   1.357       .  S
C1413      C1414   1.404       .  A
C1413      F1420   1.358       .  S
C1414      F1419   1.358       .  S
C1415      C1416   1.408   1_554  A
C1416      F1417   1.357       .  S
C1421      C1422   1.407       .  A
C1421      C1426   1.398       .  A
C1421      F1428   1.358       .  S
C1423      C1424   1.396       .  A
C1423      F1430   1.358       .  S
C1424      F1429   1.358       .  S
C1425      C1426   1.406       .  A
C1426      F1427   1.358       .  S
C1431      C1432   1.408   1_554  A
C1431      C1436   1.397       .  A
C1432      C1433   1.410       .  A
C1433      C1434   1.402       .  A
C1433      F1440   1.358       .  S
C1434      C1435   1.409       .  A
C1434      F1439   1.358       .  S
C1435      C1436   1.409   1_556  A
C1441      C1442   1.409       .  A
C1441      C1446   1.401       .  A
C1441      F1448   1.358       .  S
C1443      C1444   1.397       .  A
C1443      F1450   1.358       .  S
C1444      F1449   1.358       .  S
C1445      C1446   1.409       .  A
C1446      F1447   1.358       .  S
C1451      C1452   1.406       .  A
C1451      C1456   1.397       .  A
C1451      F1458   1.358       .  S
C1452      C1453   1.411       .  A
C1453      C1454   1.404       .  A
C1453      F1460   1.358       .  S
C1454      C1455   1.409       .  A
C1454      F1459   1.358       .  S
C1455      C1456   1.410       .  A
C1456      F1457   1.357       .  S
C1461      C1462   1.408       .  A
C1461      C1466   1.398       .  A
C1461      F1468   1.358       .  S
C1462      C1973   1.408   1_545  A
C1463      C1972   1.408       .  A
C1463      C1464   1.404       .  A
C1463      F1470   1.358       .  S
C1464      C1465   1.408       .  A
C1464      F1469   1.357       .  S
C1465      C1976   1.408       .  A
C1466      C1975   1.408       .  A
C1466      F1467   1.358       .  S
C1471      C1472   1.407   1_565  A
C1471      C1476   1.397       .  A
C1471      F1988   1.358       .  S
C1472      C1473   1.408       .  A
C1473      C1474   1.393       .  A
C1473      F1480   1.358       .  S
C1474      C1475   1.405       .  A
C1474      F1479   1.358       .  S
C1475      C1476   1.407   1_545  A
C1476      F1987   1.358       .  S
F1477      C1986   1.358       .  S
F1478      C1981   1.358       .  S
C1481      C1482   1.410       .  A
C1481      C1486   1.399       .  A
C1481      F1488   1.358       .  S
C1482      C1993   1.406   1_545  A
C1483      C1992   1.406       .  A
C1483      C1484   1.395       .  A
C1483      F1490   1.357       .  S
C1484      C1485   1.407       .  A
C1484      F1489   1.357       .  S
C1485      C1996   1.408       .  A
C1486      C1995   1.408       .  A
C1486      F1487   1.358       .  S
C1491      C1492   1.408       .  A
C1491      C1496   1.399       .  A
C1491      F1498   1.358       .  S
C1493      C1494   1.401       .  A
C1493      F1500   1.358       .  S
C1494      C1495   1.409       .  A
C1494      F1499   1.358       .  S
C1496      F1497   1.358       .  S
C1501      C1506   1.394       .  A
C1501      F1508   1.358       .  S
C1502      C1503   1.410       .  A
C1503      C1504   1.402       .  A
C1503      F1510   1.358       .  S
C1504      C1505   1.410       .  A
C1504      F1509   1.358       .  S
C1506      F1507   1.358       .  S
C1511      C1516   1.400       .  A
C1511      F1518   1.358       .  S
C1512      C1513   1.408       .  A
C1513      C1514   1.399       .  A
C1513      F1520   1.357       .  S
C1514      F1519   1.358       .  S
C1515      C1516   1.409       .  A
C1516      F1517   1.358       .  S
C1521      C1526   1.397       .  A
C1521      F1528   1.358       .  S
C1522      C1523   1.410       .  A
C1523      C1524   1.403       .  A
C1523      F1530   1.358       .  S
C1524      C1525   1.410       .  A
C1524      F1529   1.358       .  S
C1526      F1527   1.358       .  S
N1531      N1532   1.320       .  A
N1531     Mn1560   2.194       .  S
N1533      N1534   1.319       .  A
N1533     Mn1549   2.201       .  S
N1535      N1536   1.324       .  A
N1535     Mn1560   2.225       .  S
N1536      C1540   1.357   1_565  A
N1537      N1538   1.317       .  A
N1537     Mn1549   2.185       .  S
N1538      C1539   1.351       .  A
C1539      C1727   1.476       .  S
C1540      C1720   1.486       .  S
N1541      N1542   1.321       .  A
N1541     Mn1571   2.197       .  S
N1542      C1550   1.354       .  A
N1543      N1544   1.322       .  A
N1543     Mn1549   2.206       .  S
N1544      C1551   1.355       .  A
N1545      N1546   1.319       .  A
N1545     Mn1571   2.204       .  S
N1547      N1548   1.320       .  A
N1547     Mn1549   2.200       .  S
Mn1549    Cl1573   2.544       .  S
C1550      C1750   1.486       .  S
C1551      C1777   1.487       .  S
N1552      N1553   1.317       .  A
N1552     Mn1560   2.194       .  S
N1554      N1555   1.320       .  A
N1554     Mn1572   2.202       .  S
N1556      N1557   1.321       .  A
N1556     Mn1560   2.217       .  S
N1557      C1562   1.356       .  A
N1558      N1559   1.321       .  A
N1558     Mn1572   2.199       .  S
N1559      C1561   1.355       .  A
C1561      C1760   1.484       .  S
C1562      C1767   1.488       .  S
N1563      N1564   1.319       .  A
N1563     Mn1571   2.185       .  S
N1564      C1574   1.351       .  A
N1565      N1566   1.320       .  A
N1565     Mn1572   2.202       .  S
N1566      C1575   1.354   1_565  A
N1567      N1568   1.320       .  A
N1567     Mn1571   2.212       .  S
N1569      N1570   1.320       .  A
N1569     Mn1572   2.201       .  S
C1574      C1737   1.480       .  S
C1575      C1707   1.487       .  S
N1576      N1577   1.319       .  A
N1576     Mn1605   2.206       .  S
N1578      N1579   1.319       .  A
N1578     Mn1594   2.199       .  S
N1580      N1581   1.320       .  A
N1580     Mn1605   2.197       .  S
N1581      C1585   1.354       .  A
N1582      N1583   1.322       .  A
N1582     Mn1594   2.207       .  S
N1583      C1584   1.356       .  A
C1584      C1780   1.488       .  S
C1585      C1770   1.485       .  S
N1586      N1847   1.316       .  A
N1586      N1587   1.321       .  A
N1586     Mn1616   2.208       .  S
N1587      C1595   1.355       .  A
N1588      N1589   1.319       .  A
N1588      N1845   1.315   1_554  A
N1588     Mn1594   2.199       .  S
N1589      C1851   1.354   1_554  A
N1590      N1843   1.315       .  A
N1590      N1591   1.321       .  A
N1590     Mn1616   2.203       .  S
N1591      C1596   1.355       .  A
N1592      N1841   1.316   1_554  A
N1592      N1593   1.319       .  A
N1592     Mn1594   2.203       .  S
N1593      C1850   1.354   1_554  A
C1595      N1848   1.354       .  A
C1595      C1687   1.487       .  S
C1596      N1844   1.354       .  A
C1596      C1697   1.485       .  S
N1597      N1598   1.321       .  A
N1597      N1858   1.316   1_554  A
N1597     Mn1605   2.200       .  S
N1598      C1861   1.355       .  A
N1599      N1856   1.316       .  A
N1599      N1600   1.319       .  A
N1599     Mn1617   2.198       .  S
N1600      C1607   1.353       .  A
N1601      N1854   1.316   1_554  A
N1601      N1602   1.319       .  A
N1601     Mn1605   2.196       .  S
N1602      C1862   1.353   1_554  A
N1603      N1852   1.316       .  A
N1603      N1604   1.318       .  A
N1603     Mn1617   2.209       .  S
N1604      C1606   1.355       .  A
Mn1605    Cl1873   2.549   1_554  S
C1606      N1853   1.355       .  A
C1606      C1670   1.487       .  S
C1607      N1857   1.353       .  A
C1607      C1680   1.476       .  S
N1608      N1609   1.320       .  A
N1608     Mn1616   2.206       .  S
N1609      C1619   1.354       .  A
N1610      N1611   1.321       .  A
N1610     Mn1617   2.198       .  S
N1611      C1620   1.354       .  A
N1612      N1613   1.317       .  A
N1612     Mn1616   2.196       .  S
N1614      N1615   1.321       .  A
N1614     Mn1617   2.209       .  S
Mn1617    Cl1618   2.545       .  S
Cl1618    Mn1860   2.549       .  S
C1619      C1747   1.486       .  S
C1620      C1757   1.484       .  S
N1621      N1622   1.319       .  A
N1621      N1882   1.315       .  A
N1621     Mn1650   2.215       .  S
N1622      C1629   1.355       .  A
N1623      N1880   1.315   1_554  A
N1623      N1624   1.319       .  A
N1623     Mn1639   2.200       .  S
N1624      C1885   1.353   1_554  A
N1625      N1878   1.315       .  A
N1625      N1626   1.322       .  A
N1625     Mn1650   2.207       .  S
N1626      C1630   1.356       .  A
N1627      N1876   1.315   1_554  A
N1627      N1628   1.322       .  A
N1627     Mn1639   2.196       .  S
N1628      C1884   1.354       .  A
C1629      N1883   1.354       .  A
C1629      C1667   1.488       .  S
C1630      N1879   1.353       .  A
C1630      C1690   1.487       .  S
N1631      N1632   1.318       .  A
N1631     Mn1661   2.193       .  S
N1632      C1640   1.353       .  A
N1633      N1634   1.319       .  A
N1633     Mn1639   2.202       .  S
N1634      C1641   1.354   1_565  A
N1635      N1636   1.320       .  A
N1635     Mn1661   2.193       .  S
N1637      N1638   1.317       .  A
N1637     Mn1639   2.184       .  S
Mn1639    Cl1918   2.543   1_564  S
C1640      C1730   1.474       .  S
C1641      C1740   1.480       .  S
N1642      N1643   1.323       .  A
N1642     Mn1650   2.215       .  S
N1644      N1645   1.318       .  A
N1644     Mn1662   2.201       .  S
N1646      N1647   1.324       .  A
N1646     Mn1650   2.215       .  S
N1647      C1652   1.357       .  A
N1648      N1649   1.318       .  A
N1648     Mn1662   2.194       .  S
N1649      C1651   1.352       .  A
Mn1650    Cl1663   2.549   1_565  S
C1651      C1717   1.485       .  S
C1652      C1710   1.489       .  S
N1653      N1654   1.319       .  A
N1653      N1914   1.315   1_554  A
N1653     Mn1661   2.196       .  S
N1654      C1919   1.353   1_554  A
N1655      N1656   1.322       .  A
N1655      N1912   1.314       .  A
N1655     Mn1662   2.206       .  S
N1656      C1665   1.356       .  A
N1657      N1910   1.314   1_554  A
N1657      N1658   1.318       .  A
N1657     Mn1661   2.194       .  S
N1658      C1920   1.353   1_554  A
N1659      N1908   1.315       .  A
N1659      N1660   1.320       .  A
N1659     Mn1662   2.200       .  S
N1660      C1664   1.354       .  A
Cl1663    Mn1894   2.543   1_545  S
C1664      N1909   1.353       .  A
C1664      C1677   1.478       .  S
C1665      N1913   1.353       .  A
C1665      C1700   1.485       .  S
C1666      C1667   1.407       .  A
C1666      C1671   1.395       .  A
C1666      F1673   1.357       .  S
C1667      C1923   1.411       .  A
C1668      C1922   1.411       .  A
C1668      C1669   1.404       .  A
C1668      F1675   1.358       .  S
C1669      C1925   1.411       .  A
C1669      F1674   1.358       .  S
C1670      C1924   1.411       .  A
C1670      C1671   1.408       .  A
C1671      F1672   1.357       .  S
C1676      C1677   1.407       .  A
C1676      C1681   1.398       .  A
C1676      F1683   1.358       .  S
C1677      C1933   1.408       .  A
C1678      C1932   1.408   1_554  A
C1678      C1679   1.396       .  A
C1678      F1685   1.358       .  S
C1679      C1935   1.406   1_554  A
C1679      F1684   1.358       .  S
C1680      C1934   1.406       .  A
C1680      C1681   1.406       .  A
C1681      F1682   1.358       .  S
C1686      C1687   1.408       .  A
C1686      C1691   1.397       .  A
C1686      F1948   1.358       .  S
C1687      C1688   1.410       .  A
C1688      C1689   1.402       .  A
C1688      F1695   1.358       .  S
C1689      C1690   1.409       .  A
C1689      F1694   1.358       .  S
C1690      C1691   1.409       .  A
C1691      F1947   1.358       .  S
F1692      C1946   1.358       .  S
F1693      C1941   1.358       .  S
C1696      C1697   1.409       .  A
C1696      C1701   1.401       .  A
C1696      F1703   1.358       .  S
C1697      C1953   1.408       .  A
C1698      C1952   1.408   1_554  A
C1698      C1699   1.397       .  A
C1698      F1705   1.358       .  S
C1699      C1955   1.409   1_554  A
C1699      F1704   1.358       .  S
C1700      C1954   1.409       .  A
C1700      C1701   1.409       .  A
C1701      F1702   1.358       .  S
C1706      C1707   1.406       .  A
C1706      C1711   1.397       .  A
C1706      F1713   1.358       .  S
C1707      C1708   1.411   1_545  A
C1708      C1709   1.404       .  A
C1708      F1715   1.358       .  S
C1709      C1710   1.409       .  A
C1709      F1714   1.358       .  S
C1710      C1711   1.410   1_565  A
C1711      F1712   1.357       .  S
C1716      C1717   1.408       .  A
C1716      C1721   1.397       .  A
C1716      F1723   1.358       .  S
C1718      C1719   1.404       .  A
C1718      F1725   1.358       .  S
C1719      C1720   1.408   1_565  A
C1719      F1724   1.357       .  S
C1721      F1722   1.358       .  S
C1726      C1727   1.407       .  A
C1726      C1731   1.397       .  A
C1727      C1728   1.408       .  A
C1728      C1729   1.393       .  A
C1728      F1735   1.358       .  S
C1729      C1730   1.405       .  A
C1729      F1734   1.358       .  S
C1730      C1731   1.407       .  A
C1736      C1737   1.410       .  A
C1736      C1741   1.399       .  A
C1736      F1743   1.358       .  S
C1738      C1739   1.396       .  A
C1738      F1745   1.357       .  S
C1739      C1740   1.407   1_565  A
C1739      F1744   1.357       .  S
C1741      F1742   1.358       .  S
C1746      C1747   1.408       .  A
C1746      C1751   1.399       .  A
C1746      F1753   1.358       .  S
C1748      C1749   1.401       .  A
C1748      F1755   1.358       .  S
C1749      C1750   1.409       .  A
C1749      F1754   1.358       .  S
C1751      F1752   1.358       .  S
C1756      C1761   1.394       .  A
C1756      F1763   1.358       .  S
C1757      C1758   1.410       .  A
C1758      C1759   1.402       .  A
C1758      F1765   1.358       .  S
C1759      C1760   1.410       .  A
C1759      F1764   1.358       .  S
C1761      F1762   1.358       .  S
C1766      C1771   1.400       .  A
C1766      F1773   1.358       .  S
C1767      C1768   1.408       .  A
C1768      C1769   1.399       .  A
C1768      F1775   1.357       .  S
C1769      F1774   1.358       .  S
C1770      C1771   1.409       .  A
C1771      F1772   1.358       .  S
C1776      C1781   1.397       .  A
C1776      F1783   1.358       .  S
C1777      C1778   1.410       .  A
C1778      C1779   1.402       .  A
C1778      F1785   1.358       .  S
C1779      C1780   1.410       .  A
C1779      F1784   1.358       .  S
C1781      F1782   1.358       .  S
N1786      N1787   1.320       .  A
N1786     Mn1815   2.194       .  S
N1788      N1789   1.319       .  A
N1788     Mn1804   2.202       .  S
N1790      N1791   1.324       .  A
N1790     Mn1815   2.225       .  S
N1791      C1795   1.357   1_565  A
N1792      N1793   1.317       .  A
N1792     Mn1804   2.185       .  S
N1793      C1794   1.351       .  A
C1794      C1982   1.476       .  S
C1795      C1975   1.486       .  S
N1796      N1797   1.321       .  A
N1796     Mn1826   2.197       .  S
N1797      C1805   1.354       .  A
N1798      N1799   1.322       .  A
N1798     Mn1804   2.206       .  S
N1799      C1806   1.355       .  A
N1800      N1801   1.319       .  A
N1800     Mn1826   2.204       .  S
N1802      N1803   1.320       .  A
N1802     Mn1804   2.200       .  S
Mn1804    Cl1828   2.544       .  S
C1805      C2005   1.486       .  S
C1806      C2032   1.487       .  S
N1807      N1808   1.317       .  A
N1807     Mn1815   2.194       .  S
N1809      N1810   1.320       .  A
N1809     Mn1827   2.202       .  S
N1811      N1812   1.321       .  A
N1811     Mn1815   2.217       .  S
N1812      C1817   1.356       .  A
N1813      N1814   1.321       .  A
N1813     Mn1827   2.199       .  S
N1814      C1816   1.355       .  A
C1816      C2015   1.484       .  S
C1817      C2022   1.488       .  S
N1818      N1819   1.319       .  A
N1818     Mn1826   2.185       .  S
N1819      C1829   1.351       .  A
N1820      N1821   1.320       .  A
N1820     Mn1827   2.202       .  S
N1821      C1830   1.354   1_565  A
N1822      N1823   1.320       .  A
N1822     Mn1826   2.212       .  S
N1824      N1825   1.320       .  A
N1824     Mn1827   2.201       .  S
C1829      C1992   1.480       .  S
C1830      C1962   1.487       .  S
N1831      N1832   1.319       .  A
N1831     Mn1860   2.206       .  S
N1833      N1834   1.319       .  A
N1833     Mn1849   2.199       .  S
N1835      N1836   1.320       .  A
N1835     Mn1860   2.197       .  S
N1836      C1840   1.354       .  A
N1837      N1838   1.322       .  A
N1837     Mn1849   2.207       .  S
N1838      C1839   1.356       .  A
C1839      C2035   1.488       .  S
C1840      C2025   1.485       .  S
N1841      N1842   1.321       .  A
N1841     Mn1871   2.208       .  S
N1842      C1850   1.355       .  A
N1843      N1844   1.319       .  A
N1843     Mn1849   2.199       .  S
N1845      N1846   1.320       .  A
N1845     Mn1871   2.203       .  S
N1846      C1851   1.355       .  A
N1847      N1848   1.319       .  A
N1847     Mn1849   2.203       .  S
C1850      C1942   1.487       .  S
C1851      C1952   1.485       .  S
N1852      N1853   1.321       .  A
N1852     Mn1860   2.200       .  S
N1854      N1855   1.319       .  A
N1854     Mn1872   2.198       .  S
N1855      C1862   1.353       .  A
N1856      N1857   1.319       .  A
N1856     Mn1860   2.196       .  S
N1858      N1859   1.318       .  A
N1858     Mn1872   2.209       .  S
N1859      C1861   1.355   1_556  A
C1861      C1925   1.487       .  S
C1862      C1935   1.476       .  S
N1863      N1864   1.320       .  A
N1863     Mn1871   2.206       .  S
N1864      C1874   1.354       .  A
N1865      N1866   1.321       .  A
N1865     Mn1872   2.198       .  S
N1866      C1875   1.354       .  A
N1867      N1868   1.317       .  A
N1867     Mn1871   2.196       .  S
N1869      N1870   1.321       .  A
N1869     Mn1872   2.209       .  S
Mn1872    Cl1873   2.545       .  S
C1874      C2002   1.486       .  S
C1875      C2012   1.484       .  S
N1876      N1877   1.319       .  A
N1876     Mn1905   2.215       .  S
N1877      C1884   1.355   1_556  A
N1878      N1879   1.319       .  A
N1878     Mn1894   2.200       .  S
N1880      N1881   1.322       .  A
N1880     Mn1905   2.207       .  S
N1881      C1885   1.356       .  A
N1882      N1883   1.322       .  A
N1882     Mn1894   2.196       .  S
C1884      C1922   1.488       .  S
C1885      C1945   1.487       .  S
N1886      N1887   1.318       .  A
N1886     Mn1916   2.193       .  S
N1887      C1895   1.353       .  A
N1888      N1889   1.319       .  A
N1888     Mn1894   2.202       .  S
N1889      C1896   1.354   1_565  A
N1890      N1891   1.320       .  A
N1890     Mn1916   2.193       .  S
N1892      N1893   1.317       .  A
N1892     Mn1894   2.184       .  S
C1895      C1985   1.473       .  S
C1896      C1995   1.480       .  S
N1897      N1898   1.323       .  A
N1897     Mn1905   2.215       .  S
N1899      N1900   1.318       .  A
N1899     Mn1917   2.201       .  S
N1901      N1902   1.324       .  A
N1901     Mn1905   2.215       .  S
N1902      C1907   1.357       .  A
N1903      N1904   1.318       .  A
N1903     Mn1917   2.194       .  S
N1904      C1906   1.352       .  A
Mn1905    Cl1918   2.549   1_565  S
C1906      C1972   1.485       .  S
C1907      C1965   1.489       .  S
N1908      N1909   1.319       .  A
N1908     Mn1916   2.196       .  S
N1910      N1911   1.322       .  A
N1910     Mn1917   2.206       .  S
N1911      C1920   1.356       .  A
N1912      N1913   1.318       .  A
N1912     Mn1916   2.194       .  S
N1914      N1915   1.320       .  A
N1914     Mn1917   2.200       .  S
N1915      C1919   1.354       .  A
C1919      C1932   1.478       .  S
C1920      C1955   1.485       .  S
C1921      C1922   1.407   1_556  A
C1921      C1926   1.395       .  A
C1921      F1928   1.357       .  S
C1923      C1924   1.404       .  A
C1923      F1930   1.358       .  S
C1924      F1929   1.358       .  S
C1925      C1926   1.408   1_554  A
C1926      F1927   1.357       .  S
C1931      C1932   1.407       .  A
C1931      C1936   1.398       .  A
C1931      F1938   1.358       .  S
C1933      C1934   1.396       .  A
C1933      F1940   1.358       .  S
C1934      F1939   1.358       .  S
C1935      C1936   1.406       .  A
C1936      F1937   1.358       .  S
C1941      C1942   1.408   1_554  A
C1941      C1946   1.397       .  A
C1942      C1943   1.410       .  A
C1943      C1944   1.402       .  A
C1943      F1950   1.358       .  S
C1944      C1945   1.409       .  A
C1944      F1949   1.358       .  S
C1945      C1946   1.409   1_556  A
C1951      C1952   1.409       .  A
C1951      C1956   1.401       .  A
C1951      F1958   1.358       .  S
C1953      C1954   1.397       .  A
C1953      F1960   1.358       .  S
C1954      F1959   1.358       .  S
C1955      C1956   1.409       .  A
C1956      F1957   1.358       .  S
C1961      C1962   1.406       .  A
C1961      C1966   1.397       .  A
C1961      F1968   1.358       .  S
C1962      C1963   1.411   1_545  A
C1963      C1964   1.404       .  A
C1963      F1970   1.358       .  S
C1964      C1965   1.409       .  A
C1964      F1969   1.358       .  S
C1965      C1966   1.410   1_565  A
C1966      F1967   1.357       .  S
C1971      C1972   1.408       .  A
C1971      C1976   1.397       .  A
C1971      F1978   1.358       .  S
C1973      C1974   1.404       .  A
C1973      F1980   1.358       .  S
C1974      C1975   1.408   1_565  A
C1974      F1979   1.357       .  S
C1976      F1977   1.358       .  S
C1981      C1982   1.407       .  A
C1981      C1986   1.397       .  A
C1982      C1983   1.408       .  A
C1983      C1984   1.393       .  A
C1983      F1990   1.358       .  S
C1984      C1985   1.405       .  A
C1984      F1989   1.358       .  S
C1985      C1986   1.407       .  A
C1991      C1992   1.410       .  A
C1991      C1996   1.399       .  A
C1991      F1998   1.358       .  S
C1993      C1994   1.396       .  A
C1993      F2000   1.357       .  S
C1994      C1995   1.407   1_565  A
C1994      F1999   1.357       .  S
C1996      F1997   1.358       .  S
C2001      C2002   1.408       .  A
C2001      C2006   1.399       .  A
C2001      F2008   1.358       .  S
C2003      C2004   1.401       .  A
C2003      F2010   1.358       .  S
C2004      C2005   1.409       .  A
C2004      F2009   1.358       .  S
C2006      F2007   1.358       .  S
C2011      C2016   1.394       .  A
C2011      F2018   1.358       .  S
C2012      C2013   1.410       .  A
C2013      C2014   1.402       .  A
C2013      F2020   1.358       .  S
C2014      C2015   1.410       .  A
C2014      F2019   1.358       .  S
C2016      F2017   1.358       .  S
C2021      C2026   1.400       .  A
C2021      F2028   1.358       .  S
C2022      C2023   1.408       .  A
C2023      C2024   1.399       .  A
C2023      F2030   1.357       .  S
C2024      F2029   1.358       .  S
C2025      C2026   1.409       .  A
C2026      F2027   1.358       .  S
C2031      C2036   1.397       .  A
C2031      F2038   1.358       .  S
C2032      C2033   1.410       .  A
C2033      C2034   1.403       .  A
C2033      F2040   1.358       .  S
C2034      C2035   1.410       .  A
C2034      F2039   1.358       .  S
C2036      F2037   1.358       .  S
