geometry optimzed in LAMMPS
_audit_creation_date              2020-11-30 
_audit_creation_method            'lammps2cif' 
_symmetry_space_group_name_H-M    'P1' 
_symmetry_Int_Tables_number       1 
_symmetry_cell_setting            triclinic 
loop_ 
_symmetry_equiv_pos_as_xyz 
  x,y,z 
_cell_length_a                    65.71732903 
_cell_length_b                    113.16142624054359 
_cell_length_c                    55.42396353372503 
_cell_angle_alpha                 90.03720952388136 
_cell_angle_beta                  110.20600343358838 
_cell_angle_gamma                 89.99223004388121 
loop_ 
_atom_site_label 
_atom_site_type_symbol 
_atom_site_fract_x 
_atom_site_fract_y 
_atom_site_fract_z 
_atom_site_charge 
N1          N  0.92288142  0.56144727  0.79419611    -0.27200
N2          N  0.92840520  0.55979433  0.81924858    -0.35100
C3          C  0.92440686  0.54850911  0.82365157     0.01100
C4          C  0.91611776  0.54264844  0.80029897     0.07100
C5          C  0.91533896  0.55119802  0.78202741    -0.06000
H6          H  0.92895160  0.54464801  0.84263711     0.07800
H7          H  0.91067375  0.54996316  0.76146348     0.09000
Cu8        Cu  0.94563609  0.57192064  0.84685609     0.44200
Cu9        Cu  0.92860782  0.57712354  0.77803751     0.42000
Cu10       Cu  0.96719448  0.59668744  0.82316963     0.43900
N11         N  0.96997044  0.58271886  0.87035070    -0.34600
N12         N  0.97879029  0.59139711  0.86137012    -0.28900
C13         C  0.99618739  0.59554187  0.88048475    -0.05000
C14         C  0.99814492  0.58928785  0.90259208     0.07200
C15         C  0.98127923  0.58124382  0.89552337     0.01000
H16         H  0.00686567  0.60242388  0.87832405     0.08700
H17         H  0.97823347  0.57437006  0.90741885     0.07800
N18         N  0.95268651  0.60024374  0.78422030    -0.36100
N19         N  0.93845125  0.59323207  0.76774167    -0.28300
C20         C  0.93264209  0.59803950  0.74410245    -0.03500
C21         C  0.94390035  0.60854830  0.74572916     0.05100
C22         C  0.95637857  0.60964757  0.77152641     0.03200
H23         H  0.92156786  0.59397192  0.72690512     0.08300
H24         H  0.96746789  0.61672281  0.78050940     0.07100
N25         N  0.19816796  0.56072723  0.18061271    -0.27200
N26         N  0.19107723  0.55957396  0.15534545    -0.35100
C27         C  0.19818044  0.54931176  0.14916212     0.01100
C28         C  0.21032608  0.54356089  0.17156328     0.07100
C29         C  0.20997956  0.55111097  0.19120736    -0.06000
H30         H  0.19331614  0.54591867  0.12974648     0.07800
H31         H  0.21686607  0.54951177  0.21168321     0.09000
Cu32       Cu  0.16888166  0.57061874  0.12989252     0.44200
Cu33       Cu  0.18900500  0.57474857  0.19885924     0.42000
Cu34       Cu  0.14383874  0.59249792  0.15617691     0.43900
N35         N  0.14305309  0.58064421  0.10741020    -0.34600
N36         N  0.13321529  0.58854782  0.11706286    -0.28900
C37         C  0.11614033  0.59294978  0.09788055    -0.05000
C38         C  0.11525480  0.58755609  0.07500066     0.07200
C39         C  0.13265404  0.57981101  0.08191024     0.01000
H40         H  0.10510379  0.59951110  0.10048979     0.08700
H41         H  0.13696985  0.57365249  0.06954744     0.07800
N42         N  0.15914410  0.59555993  0.19539228    -0.36100
N43         N  0.17569279  0.58938205  0.21064504    -0.28300
C44         C  0.18238370  0.59426058  0.23426709    -0.03500
C45         C  0.16937204  0.60394658  0.23398197     0.05100
C46         C  0.15480615  0.60444820  0.20898651     0.03200
H47         H  0.19581060  0.59099874  0.25039253     0.08300
H48         H  0.14239738  0.61103996  0.20093266     0.07100
N49         N  0.90316575  0.71309443  0.51733487    -0.27200
N50         N  0.89347463  0.70664818  0.53002502    -0.35100
C51         C  0.87390452  0.71132130  0.52673685     0.01100
C52         C  0.87110990  0.72125625  0.51124003     0.07100
C53         C  0.89007961  0.72203746  0.50564612    -0.06000
H54         H  0.86288766  0.70784813  0.53563415     0.07800
H55         H  0.89453807  0.72877313  0.49457427     0.09000
Cu56       Cu  0.90811719  0.69255856  0.55332322     0.44200
Cu57       Cu  0.93448995  0.71030659  0.51836831     0.42000
Cu58       Cu  0.96638641  0.69208293  0.57110641     0.43900
N59         N  0.92788461  0.68064149  0.57922670    -0.34600
N60         N  0.94926581  0.68083629  0.58657365    -0.28900
C61         C  0.95741114  0.67239773  0.60434561    -0.05000
C62         C  0.94031575  0.66654956  0.60833517     0.07200
C63         C  0.92182625  0.67202392  0.59201354     0.01000
H64         H  0.97452994  0.67063005  0.61351665     0.08700
H65         H  0.90520391  0.67015236  0.59011472     0.07800
N66         N  0.97907860  0.70105515  0.54699807    -0.36100
N67         N  0.96712054  0.70711040  0.52666524    -0.28300
C68         C  0.97948736  0.71033552  0.51287933    -0.03500
C69         C  0.00030204  0.70622156  0.52535975     0.05100
C70         C  0.99947724  0.70042220  0.54695332     0.03200
H71         H  0.97364107  0.71509427  0.49486230     0.08300
H72         H  0.01237636  0.69544482  0.56067991     0.07100
N73         N  0.22226827  0.70894674  0.46805446    -0.27200
N74         N  0.23129792  0.70338544  0.45335034    -0.35100
C75         C  0.25085438  0.70820223  0.45705215     0.01100
C76         C  0.25435376  0.71730775  0.47489738     0.07100
C77         C  0.23579276  0.71743131  0.48145809    -0.06000
H78         H  0.26121940  0.70556743  0.44652741     0.07800
H79         H  0.23188883  0.72348454  0.49429595     0.09000
Cu80       Cu  0.21583327  0.69029434  0.42691583     0.44200
Cu81       Cu  0.19114563  0.70568087  0.46760873     0.42000
Cu82       Cu  0.15893109  0.68636790  0.41705937     0.43900
N83         N  0.19589877  0.67843309  0.40042476    -0.34600
N84         N  0.17495616  0.67732545  0.39638184    -0.28900
C85         C  0.16650298  0.66913859  0.37806053    -0.05000
C86         C  0.18290634  0.66476906  0.37019479     0.07200
C87         C  0.20135515  0.67087981  0.38486230     0.01000
H88         H  0.14971760  0.66638324  0.37143941     0.08700
H89         H  0.21751517  0.66999532  0.38414432     0.07800
N90         N  0.14717995  0.69472086  0.44288224    -0.36100
N91         N  0.15912868  0.70153961  0.46184370    -0.28300
C92         C  0.14710285  0.70511568  0.47580682    -0.03500
C93         C  0.12650392  0.70036381  0.46501210     0.05100
C94         C  0.12718013  0.69382962  0.44414598     0.03200
H95         H  0.15291146  0.71083867  0.49240767     0.08300
H96         H  0.11426943  0.68858704  0.43114446     0.07100
N97         N  0.70927290  0.94035551  0.19225353    -0.27200
N98         N  0.70622604  0.94215488  0.16772513    -0.35100
C99         C  0.71149827  0.95331757  0.16452044     0.01100
C100        C  0.71808598  0.95897715  0.18813657     0.07100
C101        C  0.71646737  0.95044036  0.20536405    -0.06000
H102        H  0.70871431  0.95727488  0.14589332     0.07800
H103        H  0.71905256  0.95162235  0.22557064     0.09000
Cu104      Cu  0.69043334  0.93062033  0.13844816     0.44200
Cu105      Cu  0.70030574  0.92474056  0.20521041     0.42000
Cu106      Cu  0.66646556  0.90495124  0.15398966     0.43900
N107        N  0.66895573  0.92008901  0.11092771    -0.34600
N108        N  0.66011549  0.91046100  0.11646989    -0.28900
C109        C  0.64527531  0.90625618  0.09478830    -0.05000
C110        C  0.64455593  0.91374821  0.07475891     0.07200
C111        C  0.65980839  0.92240719  0.08572839     0.01000
H112        H  0.63465618  0.89884745  0.09402830     0.08700
H113        H  0.66325087  0.93015713  0.07637043     0.07800
N114        N  0.67498526  0.90183799  0.19308615    -0.36100
N115        N  0.68760368  0.90875943  0.21142695    -0.28300
C116        C  0.69044491  0.90380865  0.23439189    -0.03500
C117        C  0.67889482  0.89333613  0.23034003     0.05100
C118        C  0.66925492  0.89238900  0.20394190     0.03200
H119        H  0.70008469  0.90762107  0.25266235     0.08300
H120        H  0.65925785  0.88521601  0.19331222     0.07100
N121        N  0.45145091  0.94100198  0.79210733    -0.27200
N122        N  0.45697316  0.94288635  0.81705695    -0.35100
C123        C  0.44998448  0.95361867  0.82093881     0.01100
C124        C  0.43977483  0.95880498  0.79724716     0.07100
C125        C  0.44106664  0.95057859  0.77934634    -0.06000
H126        H  0.45336662  0.95764817  0.83962856     0.07800
H127        H  0.43536309  0.95157240  0.75866322     0.09000
Cu128      Cu  0.47682886  0.93166975  0.84442183     0.44200
Cu129      Cu  0.45919206  0.92558986  0.77738326     0.42000
Cu130      Cu  0.49523457  0.90483704  0.82392473     0.43900
N131        N  0.50110302  0.92117210  0.86831310    -0.34600
N132        N  0.50798817  0.91125924  0.86115034    -0.28900
C133        C  0.52488447  0.90710664  0.88091507    -0.05000
C134        C  0.52893059  0.91491070  0.90134698     0.07200
C135        C  0.51346256  0.92368210  0.89259778     0.01000
H136        H  0.53411445  0.89930240  0.88004274     0.08700
H137        H  0.51151224  0.93147927  0.90288089     0.07800
N138        N  0.48045613  0.90154599  0.78496299    -0.36100
N139        N  0.46736729  0.90898324  0.76834265    -0.28300
C140        C  0.46037895  0.90398747  0.74491923    -0.03500
C141        C  0.46968845  0.89292591  0.74681103     0.05100
C142        C  0.48232678  0.89166741  0.77245083     0.03200
H143        H  0.44955593  0.90819039  0.72776606     0.08300
H144        H  0.49195369  0.88407894  0.78147088     0.07100
N145        N  0.71200581  0.78438021  0.44670603    -0.27200
N146        N  0.72096691  0.78998392  0.43204983    -0.35100
C147        C  0.74068792  0.78539603  0.43597955     0.01100
C148        C  0.74437554  0.77642581  0.45408331     0.07100
C149        C  0.72573726  0.77608961  0.46042527    -0.06000
H150        H  0.75124086  0.78830125  0.42592090     0.07800
H151        H  0.72205948  0.77016220  0.47363835     0.09000
Cu152      Cu  0.70565087  0.80331937  0.40690268     0.44200
Cu153      Cu  0.68103104  0.78762438  0.44607567     0.42000
Cu154      Cu  0.64887522  0.80792491  0.39728034     0.43900
N155        N  0.68683461  0.81625636  0.38331606    -0.34600
N156        N  0.66593815  0.81773827  0.37910694    -0.28900
C157        C  0.65855620  0.82676884  0.36262851    -0.05000
C158        C  0.67573220  0.83124682  0.35645279     0.07200
C159        C  0.69338775  0.82437317  0.36991977     0.01000
H160        H  0.64203531  0.82997592  0.35607426     0.08700
H161        H  0.70975906  0.82509634  0.36974636     0.07800
N162        N  0.63695249  0.79838711  0.42137691    -0.36100
N163        N  0.64890785  0.79125316  0.43963981    -0.28300
C164        C  0.63692905  0.78717006  0.45315404    -0.03500
C165        C  0.61635538  0.79194467  0.44286257     0.05100
C166        C  0.61695324  0.79898998  0.42268657     0.03200
H167        H  0.64293709  0.78131315  0.46949769     0.08300
H168        H  0.60415323  0.80460366  0.41061793     0.07100
N169        N  0.40174099  0.78786940  0.51547862    -0.27200
N170        N  0.39391698  0.79328703  0.53150112    -0.35100
C171        C  0.37526420  0.78802648  0.53040765     0.01100
C172        C  0.37115754  0.77875987  0.51292371     0.07100
C173        C  0.38832899  0.77903687  0.50377339    -0.06000
H174        H  0.36609775  0.79040439  0.54257674     0.07800
H175        H  0.39152090  0.77298094  0.49040747     0.09000
Cu176      Cu  0.41059187  0.80642601  0.55662977     0.44200
Cu177      Cu  0.43184896  0.79135576  0.51295468     0.42000
Cu178      Cu  0.46824619  0.80719364  0.56653988     0.43900
N179        N  0.43259827  0.81752427  0.58253446    -0.34600
N180        N  0.45366447  0.81737656  0.58679410    -0.28900
C181        C  0.46348192  0.82545194  0.60478329    -0.05000
C182        C  0.44784619  0.83102974  0.61216415     0.07200
C183        C  0.42842853  0.82578076  0.59764870     0.01000
H184        H  0.48066925  0.82732977  0.61139685     0.08700
H185        H  0.41245947  0.82772272  0.59814594     0.07800
N186        N  0.47786565  0.79931682  0.53870751    -0.36100
N187        N  0.46421361  0.79408850  0.51816619    -0.28300
C188        C  0.47493384  0.79090495  0.50247678    -0.03500
C189        C  0.49640677  0.79419875  0.51388559     0.05100
C190        C  0.49771557  0.79948622  0.53686165     0.03200
H191        H  0.46763868  0.78650243  0.48417825     0.08300
H192        H  0.51180234  0.80357845  0.55069116     0.07100
N193        N  0.42894719  0.06416968  0.78987314    -0.27200
N194        N  0.43100057  0.06244579  0.81415846    -0.35100
C195        C  0.42588996  0.05120991  0.81725754     0.01100
C196        C  0.42049584  0.04548315  0.79380975     0.07100
C197        C  0.42257086  0.05400869  0.77683199    -0.06000
H198        H  0.42790084  0.04725171  0.83570948     0.07800
H199        H  0.42077381  0.05278129  0.75684135     0.09000
Cu200      Cu  0.44514120  0.07448355  0.84300747     0.44200
Cu201      Cu  0.43775104  0.07986424  0.77692166     0.42000
Cu202      Cu  0.46540909  0.10164229  0.82671758     0.43900
N203        N  0.46555662  0.08568290  0.86993571    -0.34600
N204        N  0.47331528  0.09565933  0.86427852    -0.28900
C205        C  0.48812588  0.10002413  0.88583994    -0.05000
C206        C  0.48987825  0.09231791  0.90593189     0.07200
C207        C  0.47521302  0.08337286  0.89504305     0.01000
H208        H  0.49793300  0.10777133  0.88644888     0.08700
H209        H  0.47243466  0.07543945  0.90432800     0.07800
N210        N  0.45692706  0.10445308  0.78740419    -0.36100
N211        N  0.44761640  0.09646086  0.76955983    -0.28300
C212        C  0.44525051  0.10097819  0.74631189    -0.03500
C213        C  0.45323026  0.11240256  0.74962327     0.05100
C214        C  0.46044903  0.11431763  0.77590771     0.03200
H215        H  0.43792062  0.09634451  0.72832742     0.08300
H216        H  0.46806554  0.12222203  0.78600731     0.07100
N217        N  0.68901250  0.06423919  0.18337308    -0.27200
N218        N  0.67807877  0.06108226  0.15946040    -0.35100
C219        C  0.68043205  0.04945344  0.15682858     0.01100
C220        C  0.69340292  0.04500922  0.18028816     0.07100
C221        C  0.69849117  0.05459332  0.19684025    -0.06000
H222        H  0.67337955  0.04461239  0.13904044     0.07800
H223        H  0.70901655  0.05464820  0.21677014     0.09000
Cu224      Cu  0.66019470  0.07255812  0.13148723     0.44200
Cu225      Cu  0.69108797  0.08175274  0.19472772     0.42000
Cu226      Cu  0.65619661  0.10286817  0.14669780     0.43900
N227        N  0.63865952  0.08408911  0.10709754    -0.34600
N228        N  0.63659744  0.09529877  0.11239351    -0.28900
C229        C  0.61968191  0.09994322  0.09332179    -0.05000
C230        C  0.61063738  0.09112292  0.07534077     0.07200
C231        C  0.62329258  0.08124592  0.08477381     0.01000
H232        H  0.61394592  0.10891608  0.09309958     0.08700
H233        H  0.62135743  0.07250040  0.07641994     0.07800
N234        N  0.67653534  0.10724550  0.18358282    -0.36100
N235        N  0.68922401  0.09974969  0.20047498    -0.28300
C236        C  0.69864218  0.10538946  0.22292010    -0.03500
C237        C  0.69132191  0.11693730  0.22024921     0.05100
C238        C  0.67742295  0.11780614  0.19500639     0.03200
H239        H  0.70871046  0.10112548  0.24042206     0.08300
H240        H  0.66779472  0.12538327  0.18589661     0.07100
N241        N  0.74772205  0.21325788  0.46956059    -0.27200
N242        N  0.75682777  0.20734308  0.45538624    -0.35100
C243        C  0.77755142  0.21085725  0.46157883     0.01100
C244        C  0.78175164  0.21945124  0.48052890     0.07100
C245        C  0.76238183  0.22072995  0.48505134    -0.06000
H246        H  0.78849195  0.20763166  0.45230559     0.07800
H247        H  0.75904252  0.22668287  0.49848141     0.09000
Cu248      Cu  0.74050840  0.19523648  0.42717116     0.44200
Cu249      Cu  0.71566354  0.21117202  0.46694996     0.42000
Cu250      Cu  0.68264014  0.19425792  0.41222607     0.43900
N251        N  0.71993959  0.18455125  0.39865212    -0.34600
N252        N  0.69865989  0.18454067  0.39269290    -0.28900
C253        C  0.68980390  0.17701737  0.37310490    -0.05000
C254        C  0.70630824  0.17198272  0.36639696     0.07200
C255        C  0.72522009  0.17695768  0.38307007     0.01000
H256        H  0.67261274  0.17527551  0.36459116     0.08700
H257        H  0.74157913  0.17540548  0.38346898     0.07800
N258        N  0.67087647  0.20186538  0.43869904    -0.36100
N259        N  0.68314511  0.20749316  0.45955982    -0.28300
C260        C  0.67125081  0.20986186  0.47447867    -0.03500
C261        C  0.65046097  0.20566186  0.46214157     0.05100
C262        C  0.65077908  0.20070003  0.43949525     0.03200
H263        H  0.67734297  0.21417972  0.49301534     0.08300
H264        H  0.63770883  0.19601747  0.42533109     0.07100
N265        N  0.43066321  0.21469236  0.52074008    -0.27200
N266        N  0.42327522  0.21112760  0.53883622    -0.35100
C267        C  0.40338429  0.21559080  0.53424652     0.01100
C268        C  0.39777103  0.22234116  0.51205374     0.07100
C269        C  0.41560474  0.22159928  0.50408353    -0.06000
H270        H  0.39373906  0.21388530  0.54621003     0.07800
H271        H  0.41740467  0.22554084  0.48717268     0.09000
Cu272      Cu  0.43936589  0.19936908  0.56744303     0.44200
Cu273      Cu  0.46050942  0.20932610  0.51956684     0.42000
Cu274      Cu  0.48571810  0.18441596  0.56157269     0.43900
N275        N  0.45342016  0.18474704  0.58888397    -0.34600
N276        N  0.46947627  0.17870621  0.58560018    -0.28900
C277        C  0.47354782  0.16913908  0.60095995    -0.05000
C278        C  0.45954621  0.16931694  0.61476997     0.07200
C279        C  0.44707766  0.17934800  0.60665592     0.01000
H280        H  0.48610753  0.16270500  0.60243196     0.08700
H281        H  0.43401326  0.18237862  0.61279137     0.07800
N282        N  0.50013215  0.19355569  0.53920007    -0.36100
N283        N  0.49087280  0.20246416  0.52389312    -0.28300
C284        C  0.50447497  0.20642121  0.51234576    -0.03500
C285        C  0.52329607  0.19976556  0.52087859     0.05100
C286        C  0.51999007  0.19170786  0.53796619     0.03200
H287        H  0.50098147  0.21372803  0.49896910     0.08300
H288        H  0.53104371  0.18489863  0.54847167     0.07100
N289        N  0.21479425  0.43754405  0.17215767    -0.27200
N290        N  0.21456069  0.43843010  0.14831155    -0.35100
C291        C  0.21913582  0.44959597  0.14391238     0.01100
C292        C  0.22237321  0.45620654  0.16603572     0.07100
C293        C  0.21956980  0.44818058  0.18361059    -0.06000
H294        H  0.21880587  0.45269517  0.12536644     0.07800
H295        H  0.21986228  0.44998990  0.20287445     0.09000
Cu296      Cu  0.20368479  0.42537605  0.12075821     0.44200
Cu297      Cu  0.20657732  0.42214705  0.18691917     0.42000
Cu298      Cu  0.18129470  0.39961984  0.13884753     0.43900
N299        N  0.18272712  0.41415846  0.09427694    -0.34600
N300        N  0.17335984  0.40501250  0.10093150    -0.28900
C301        C  0.15724189  0.40106768  0.08006686    -0.05000
C302        C  0.15657588  0.40804039  0.05923706     0.07200
C303        C  0.17308125  0.41619384  0.06900556     0.01000
H304        H  0.14612804  0.39405836  0.08035798     0.08700
H305        H  0.17645992  0.42375377  0.05903499     0.07800
N306        N  0.19089065  0.39691414  0.17824276    -0.36100
N307        N  0.19919403  0.40521980  0.19568330    -0.28300
C308        C  0.20292000  0.40064287  0.21922491    -0.03500
C309        C  0.19697177  0.38885224  0.21646097     0.05100
C310        C  0.18947348  0.38679121  0.19023984     0.03200
H311        H  0.20993061  0.40546820  0.23703035     0.08300
H312        H  0.18315303  0.37857894  0.18054241     0.07100
N313        N  0.94639119  0.43917483  0.78657080    -0.27200
N314        N  0.95298007  0.44046232  0.81183561    -0.35100
C315        C  0.94410542  0.45030456  0.81746643     0.01100
C316        C  0.93149063  0.45566126  0.79475930     0.07100
C317        C  0.93326388  0.44828211  0.77553617    -0.06000
H318        H  0.94841596  0.45393566  0.83665524     0.07800
H319        H  0.92673255  0.44982083  0.75500823     0.09000
Cu320      Cu  0.97806000  0.43100909  0.83794047     0.44200
Cu321      Cu  0.95848989  0.42628972  0.76813918     0.42000
Cu322      Cu  0.01133997  0.41625793  0.80865901     0.43900
N323        N  0.00836695  0.42422746  0.85888926    -0.34600
N324        N  0.02116966  0.41952339  0.84761580    -0.28900
C325        C  0.04020347  0.41662975  0.86556680    -0.05000
C326        C  0.03929962  0.41953986  0.88938935     0.07200
C327        C  0.01884654  0.42431417  0.88449774     0.01000
H328        H  0.05350112  0.41242030  0.86160099     0.08700
H329        H  0.01225230  0.42779540  0.89842865     0.07800
N330        N  0.99604379  0.41035713  0.77157062    -0.36100
N331        N  0.97640160  0.41360328  0.75673387    -0.28300
C332        C  0.97042903  0.40696532  0.73520068    -0.03500
C333        C  0.98718572  0.39915799  0.73664056     0.05100
C334        C  0.00310961  0.40165407  0.76003003     0.03200
H335        H  0.95479618  0.40755193  0.72008848     0.08300
H336        H  0.01824391  0.39702087  0.76891245     0.07100
N337        N  0.94779048  0.27696355  0.54974950    -0.27200
N338        N  0.93923352  0.28320846  0.56397609    -0.35100
C339        C  0.91953710  0.27881924  0.56111932     0.01100
C340        C  0.91552454  0.26928987  0.54433997     0.07100
C341        C  0.93387191  0.26840454  0.53753577    -0.06000
H342        H  0.90915779  0.28220835  0.57099105     0.07800
H343        H  0.93694386  0.26207324  0.52458162     0.09000
Cu344      Cu  0.95517601  0.29712407  0.58725880     0.44200
Cu345      Cu  0.97801182  0.28031917  0.54786638     0.42000
Cu346      Cu  0.01134357  0.30167691  0.59350651     0.43900
N347        N  0.97464493  0.31031191  0.60967689    -0.34600
N348        N  0.99530064  0.31179504  0.61255383    -0.28900
C349        C  0.00290344  0.32137069  0.62733160    -0.05000
C350        C  0.98617074  0.32622693  0.63393882     0.07200
C351        C  0.96853034  0.31892281  0.62243688     0.01000
H352        H  0.01912179  0.32484843  0.63183875     0.08700
H353        H  0.95228902  0.31987622  0.62287517     0.07800
N354        N  0.02116140  0.29269734  0.56677292    -0.36100
N355        N  0.00854431  0.28537192  0.54941329    -0.28300
C356        C  0.01838000  0.28235661  0.53271080    -0.03500
C357        C  0.03825718  0.28793819  0.54011958     0.05100
C358        C  0.03958863  0.29437617  0.56183112     0.03200
H359        H  0.01135812  0.27674846  0.51611348     0.08300
H360        H  0.05236513  0.30039705  0.57226274     0.07100
N361        N  0.23335492  0.28113300  0.43835514    -0.27200
N362        N  0.24078475  0.28568979  0.42113331    -0.35100
C363        C  0.25930270  0.28019338  0.42268622     0.01100
C364        C  0.26383331  0.27169113  0.44189629     0.07100
C365        C  0.24690509  0.27258564  0.45139088    -0.06000
H366        H  0.26867519  0.28231696  0.41063000     0.07800
H367        H  0.24458591  0.26752797  0.46677440     0.09000
Cu368      Cu  0.22545225  0.29940862  0.39703237     0.44200
Cu369      Cu  0.20501126  0.28690436  0.44256894     0.42000
Cu370      Cu  0.17674888  0.31208051  0.40409271     0.43900
N371        N  0.20937698  0.31407594  0.37712366    -0.34600
N372        N  0.19235077  0.31908276  0.38045998    -0.28900
C373        C  0.18668411  0.32868818  0.36526681    -0.05000
C374        C  0.20062554  0.32963244  0.35147224     0.07200
C375        C  0.21474567  0.32021153  0.35947362     0.01000
H376        H  0.17303080  0.33435121  0.36380780     0.08700
H377        H  0.22813057  0.31802242  0.35313558     0.07800
N378        N  0.16462623  0.30211679  0.42760877    -0.36100
N379        N  0.17533942  0.29319698  0.44177278    -0.28300
C380        C  0.16387041  0.28885512  0.45558228    -0.03500
C381        C  0.14491285  0.29524809  0.44980373     0.05100
C382        C  0.14579204  0.30357456  0.43188312     0.03200
H383        H  0.16909538  0.28161914  0.46906413     0.08300
H384        H  0.13407468  0.31044417  0.42337523     0.07100
C385        C  0.06886089  0.29418844  0.44719445    -0.17800
C386        C  0.05389879  0.29268383  0.45981962    -0.19900
C387        C  0.06106238  0.29066401  0.48644285     0.20700
C388        C  0.08349729  0.28998673  0.50044059    -0.02900
C389        C  0.09853980  0.29126284  0.48764245    -0.05900
C390        C  0.09121765  0.29353693  0.46093574     0.21000
C391        C  0.12092824  0.29036483  0.50165463     0.19100
C392        C  0.12811765  0.28829980  0.52822429    -0.17400
C393        C  0.11323880  0.28729751  0.54099433    -0.19600
C394        C  0.09094209  0.28818261  0.52731054     0.20600
C395        C  0.07598102  0.28745395  0.54009363    -0.32600
C396        C  0.05369615  0.28814403  0.52628150     0.01300
C397        C  0.04625288  0.28951967  0.49943817    -0.24000
C398        C  0.10641887  0.29511150  0.44854563    -0.28600
C399        C  0.12869918  0.29405380  0.46248323     0.07000
C400        C  0.13579274  0.29161242  0.48891454    -0.27200
H401        H  0.06294657  0.29586209  0.42669121     0.11700
H402        H  0.03673384  0.29324201  0.44881715     0.12800
H403        H  0.14528225  0.28758727  0.53918652     0.11900
H404        H  0.11917021  0.28585646  0.56157971     0.11200
H405        H  0.08161882  0.28631015  0.56077875     0.16600
H406        H  0.02900252  0.29014363  0.48886590     0.12500
H407        H  0.10097545  0.29689888  0.42808849     0.15300
H408        H  0.15300349  0.29090791  0.49970591     0.15100
C409        C  0.94806035  0.36033999  0.65453533    -0.17800
C410        C  0.94824749  0.37072453  0.66831244    -0.19900
C411        C  0.96771721  0.37504031  0.68598860     0.20700
C412        C  0.98726360  0.36894083  0.68944631    -0.02900
C413        C  0.98708848  0.35847060  0.67549235    -0.05900
C414        C  0.96735007  0.35410111  0.65815781     0.21000
C415        C  0.00660729  0.35231238  0.67911417     0.19100
C416        C  0.02613273  0.35673371  0.69647979    -0.17400
C417        C  0.02629735  0.36708254  0.71037864    -0.19600
C418        C  0.00692817  0.37319053  0.70713456     0.20600
C419        C  0.00684231  0.38332090  0.72169108    -0.32600
C420        C  0.98731555  0.38923880  0.71907408     0.01300
C421        C  0.96788454  0.38516832  0.70070991    -0.24000
C422        C  0.96720226  0.34354883  0.64482356    -0.28600
C423        C  0.98655338  0.33731847  0.64836415     0.07000
C424        C  0.00622476  0.34181219  0.66544802    -0.27200
H425        H  0.93278439  0.35713356  0.64118581     0.11700
H426        H  0.93309295  0.37531075  0.66535629     0.12800
H427        H  0.04128342  0.35213199  0.69947384     0.11900
H428        H  0.04153714  0.37024148  0.72385281     0.11200
H429        H  0.02200534  0.38645425  0.73533272     0.16600
H430        H  0.95272520  0.38960474  0.69843163     0.12500
H431        H  0.95199839  0.34028511  0.63143428     0.15300
H432        H  0.02121445  0.33705434  0.66842499     0.15100
C433        C  0.18916152  0.37055339  0.31822871    -0.17800
C434        C  0.18926192  0.37891104  0.29966355    -0.19900
C435        C  0.19437108  0.37554204  0.27805094     0.20700
C436        C  0.19963090  0.36364656  0.27522495    -0.02900
C437        C  0.19992526  0.35526296  0.29418511    -0.05900
C438        C  0.19443302  0.35870950  0.31565232     0.21000
C439        C  0.20561303  0.34342653  0.29157968     0.19100
C440        C  0.21072513  0.34004653  0.26998430    -0.17400
C441        C  0.21002972  0.34830282  0.25096009    -0.19600
C442        C  0.20445976  0.36010326  0.25337391     0.20600
C443        C  0.20350052  0.36840192  0.23424724    -0.32600
C444        C  0.19832793  0.38025666  0.23697637     0.01300
C445        C  0.19408754  0.38381332  0.25907553    -0.24000
C446        C  0.19433133  0.35025263  0.33414312    -0.28600
C447        C  0.20024750  0.33849027  0.33177109     0.07000
C448        C  0.20600374  0.33516429  0.31055173    -0.27200
H449        H  0.18499602  0.37335617  0.33461890     0.11700
H450        H  0.18515327  0.38800627  0.30210594     0.12800
H451        H  0.21510555  0.33098976  0.26770895     0.11900
H452        H  0.21385724  0.34545721  0.23435183     0.11200
H453        H  0.20700855  0.36567266  0.21734419     0.16600
H454        H  0.18995650  0.39294810  0.26112294     0.12500
H455        H  0.19007702  0.35285433  0.35060997     0.15300
H456        H  0.21038230  0.32607375  0.30855167     0.15100
C457        C  0.13308348  0.41841454  0.96723266    -0.17800
C458        C  0.11660349  0.42018647  0.94353878    -0.19900
C459        C  0.09491960  0.41785876  0.94066742     0.20700
C460        C  0.08977595  0.41359864  0.96179658    -0.02900
C461        C  0.10645705  0.41158997  0.98556983    -0.05900
C462        C  0.12817124  0.41415626  0.98835861     0.21000
C463        C  0.10137122  0.40717652  0.00661984     0.19100
C464        C  0.07967588  0.40483040  0.00371053    -0.17400
C465        C  0.06310198  0.40699751  0.98025823    -0.19600
C466        C  0.06796484  0.41142488  0.95923011     0.20600
C467        C  0.05144030  0.41368951  0.93567140    -0.32600
C468        C  0.05654612  0.41772796  0.91449046     0.01300
C469        C  0.07828848  0.41973102  0.91705826    -0.24000
C470        C  0.14453416  0.41263890  0.01234250    -0.28600
C471        C  0.13954984  0.40842075  0.03349517     0.07000
C472        C  0.11800086  0.40546295  0.03035733    -0.27200
H473        H  0.14967109  0.42040795  0.96905468     0.11700
H474        H  0.12080240  0.42347582  0.92750450     0.12800
H475        H  0.07549191  0.40144991  0.01968572     0.11900
H476        H  0.04646821  0.40521886  0.97857396     0.11200
H477        H  0.03466997  0.41203156  0.93359313     0.16600
H478        H  0.08220418  0.42291577  0.90073676     0.12500
H479        H  0.16114690  0.41485072  0.01464255     0.15300
H480        H  0.11401443  0.40233286  0.04666511     0.15100
C481        C  0.33618567  0.25964756  0.44189786    -0.17800
C482        C  0.35485884  0.25271473  0.45154481    -0.19900
C483        C  0.35638092  0.24399239  0.47006317     0.20700
C484        C  0.33872078  0.24206717  0.47854035    -0.02900
C485        C  0.31987050  0.24906619  0.46880566    -0.05900
C486        C  0.31871739  0.25796851  0.45060365     0.21000
C487        C  0.30236622  0.24729466  0.47762306     0.19100
C488        C  0.30367152  0.23836842  0.49567066    -0.17400
C489        C  0.32235069  0.23142612  0.50531462    -0.19600
C490        C  0.34004069  0.23330637  0.49708746     0.20600
C491        C  0.35915986  0.22672940  0.50745401    -0.32600
C492        C  0.37713323  0.22882877  0.49971318     0.01300
C493        C  0.37541828  0.23734952  0.48063531    -0.24000
C494        C  0.30029144  0.26517662  0.44170228    -0.28600
C495        C  0.28289470  0.26366587  0.45074078     0.07000
C496        C  0.28400847  0.25457994  0.46852264    -0.27200
H497        H  0.33550653  0.26641807  0.42783737     0.11700
H498        H  0.36823583  0.25427971  0.44474282     0.12800
H499        H  0.29033889  0.23684448  0.50256306     0.11900
H500        H  0.32307162  0.22469190  0.51946200     0.11200
H501        H  0.35999337  0.22005455  0.52172769     0.16600
H502        H  0.38906119  0.23907317  0.47443274     0.12500
H503        H  0.29981556  0.27209805  0.42807679     0.15300
H504        H  0.27070754  0.25317269  0.47548705     0.15100
C505        C  0.83855210  0.26233469  0.53293434    -0.17800
C506        C  0.81995644  0.25528490  0.52445345    -0.19900
C507        C  0.82047003  0.24420448  0.51330001     0.20700
C508        C  0.83998926  0.24011159  0.51097181    -0.02900
C509        C  0.85876940  0.24722611  0.51954859    -0.05900
C510        C  0.85798243  0.25841107  0.53044573     0.21000
C511        C  0.87823196  0.24320753  0.51694671     0.19100
C512        C  0.87883469  0.23204105  0.50616795    -0.17400
C513        C  0.86020960  0.22499157  0.49763921    -0.19600
C514        C  0.84066778  0.22899673  0.49973470     0.20600
C515        C  0.82171792  0.22217690  0.49037866    -0.32600
C516        C  0.80204574  0.22632183  0.49205211     0.01300
C517        C  0.80169363  0.23726685  0.50396623    -0.24000
C518        C  0.87657052  0.26552518  0.53850680    -0.28600
C519        C  0.89601000  0.26164537  0.53582805     0.07000
C520        C  0.89670171  0.25044394  0.52505458    -0.27200
H521        H  0.83770097  0.27089359  0.54130373     0.11700
H522        H  0.80509512  0.25855357  0.52640729     0.12800
H523        H  0.89367536  0.22879431  0.50413802     0.11900
H524        H  0.86103408  0.21646134  0.48916451     0.11200
H525        H  0.82230369  0.21368828  0.48163523     0.16600
H526        H  0.78666692  0.24060269  0.50530488     0.12500
H527        H  0.87573607  0.27416398  0.54653029     0.15300
H528        H  0.91162079  0.24728203  0.52313858     0.15100
C529        C  0.55488843  0.21006447  0.45492999    -0.17800
C530        C  0.57264312  0.21080328  0.44661784    -0.19900
C531        C  0.59346170  0.20776535  0.46319663     0.20700
C532        C  0.59648840  0.20398738  0.48847756    -0.02900
C533        C  0.57849088  0.20301442  0.49670433    -0.05900
C534        C  0.55763546  0.20612680  0.47985635     0.21000
C535        C  0.58133549  0.19886009  0.52167435     0.19100
C536        C  0.60222711  0.19592806  0.53833446    -0.17400
C537        C  0.62014602  0.19709581  0.53033275    -0.19600
C538        C  0.61744420  0.20108566  0.50543333     0.20600
C539        C  0.63523803  0.20208108  0.49703340    -0.32600
C540        C  0.63214132  0.20553229  0.47166125     0.01300
C541        C  0.61126871  0.20833288  0.45485771    -0.24000
C542        C  0.53982787  0.20517017  0.48810823    -0.28600
C543        C  0.54243438  0.20089412  0.51279338     0.07000
C544        C  0.56323021  0.19770068  0.52947240    -0.27200
H545        H  0.53898285  0.21247304  0.44179468     0.11700
H546        H  0.57008145  0.21375788  0.42717516     0.12800
H547        H  0.60471797  0.19274616  0.55757455     0.11900
H548        H  0.63609133  0.19478622  0.54354768     0.11200
H549        H  0.65134701  0.19979071  0.50987494     0.16600
H550        H  0.60895442  0.21102523  0.43529824     0.12500
H551        H  0.52384229  0.20751259  0.47506542     0.15300
H552        H  0.56536213  0.19449159  0.54860445     0.15100
C553        C  0.73412637  0.13275170  0.30594702    -0.17800
C554        C  0.73606885  0.14031458  0.32661690    -0.19900
C555        C  0.71921208  0.14812570  0.32567996     0.20700
C556        C  0.70018491  0.14828381  0.30374324    -0.02900
C557        C  0.69835851  0.14078035  0.28276105    -0.05900
C558        C  0.71537083  0.13293413  0.28392730     0.21000
C559        C  0.67947192  0.14110653  0.26067173     0.19100
C560        C  0.66249785  0.14879551  0.25984065    -0.17400
C561        C  0.66421430  0.15613098  0.28074123    -0.19600
C562        C  0.68299183  0.15596957  0.30270914     0.20600
C563        C  0.68496560  0.16346192  0.32351896    -0.32600
C564        C  0.70406199  0.16357462  0.34517983     0.01300
C565        C  0.72109564  0.15583984  0.34618590    -0.24000
C566        C  0.71319634  0.12533320  0.26317208    -0.28600
C567        C  0.69435750  0.12558938  0.24117137     0.07000
C568        C  0.67770999  0.13361566  0.23993247    -0.27200
H569        H  0.74733633  0.12676845  0.30716773     0.11700
H570        H  0.75074423  0.14005227  0.34333207     0.12800
H571        H  0.64787474  0.14910288  0.24307599     0.11900
H572        H  0.65086118  0.16199409  0.27965903     0.11200
H573        H  0.67181659  0.16946212  0.32249466     0.16600
H574        H  0.73574856  0.15577754  0.36295655     0.12500
H575        H  0.72612904  0.11918774  0.26416405     0.15300
H576        H  0.66301583  0.13374569  0.22324044     0.15100
C577        C  0.46239133  0.12844087  0.64698896    -0.17800
C578        C  0.46112186  0.12045767  0.66568753    -0.19900
C579        C  0.45765535  0.12452231  0.68788708     0.20700
C580        C  0.45525898  0.13674859  0.69119560    -0.02900
C581        C  0.45613448  0.14478076  0.67211826    -0.05900
C582        C  0.45996708  0.14061298  0.65004794     0.21000
C583        C  0.45327478  0.15697953  0.67519974     0.19100
C584        C  0.44981597  0.16105338  0.69738855    -0.17400
C585        C  0.44935574  0.15311402  0.71651255    -0.19600
C586        C  0.45207465  0.14096156  0.71360858     0.20600
C587        C  0.45167017  0.13295342  0.73272256    -0.32600
C588        C  0.45385784  0.12076498  0.72944918     0.01300
C589        C  0.45665742  0.11659638  0.70689975    -0.24000
C590        C  0.46135158  0.14869575  0.63148204    -0.28600
C591        C  0.45833208  0.16083005  0.63439512     0.07000
C592        C  0.45407047  0.16490013  0.65612570    -0.27200
H593        H  0.46524267  0.12509579  0.63012963     0.11700
H594        H  0.46301161  0.11109591  0.66286548     0.12800
H595        H  0.44762835  0.17038808  0.70004031     0.11900
H596        H  0.44682570  0.15648104  0.73356770     0.11200
H597        H  0.44927671  0.13618489  0.74995958     0.16600
H598        H  0.45852341  0.10720168  0.70440772     0.12500
H599        H  0.46440655  0.14554958  0.61458169     0.15300
H600        H  0.45187864  0.17426746  0.65845729     0.15100
C601        C  0.55819566  0.11360202  0.00387509    -0.17800
C602        C  0.54140161  0.11375297  0.97998013    -0.19900
C603        C  0.53184843  0.10316017  0.96823042     0.20700
C604        C  0.53896657  0.09233240  0.98098017    -0.02900
C605        C  0.55595621  0.09217683  0.00497640    -0.05900
C606        C  0.56577565  0.10285187  0.01639387     0.21000
C607        C  0.56337282  0.08130711  0.01728605     0.16700
C608        C  0.55352317  0.07072868  0.00590788    -0.17400
C609        C  0.53666830  0.07088296  0.98220631    -0.19600
C610        C  0.52941856  0.08162046  0.96952846     0.20600
C611        C  0.51306480  0.08177976  0.94536302    -0.32600
C612        C  0.50621897  0.09248264  0.93218238     0.01300
C613        C  0.51557682  0.10316302  0.94380911    -0.24000
C614        C  0.58329632  0.10254665  0.03979138    -0.28600
C615        C  0.59119810  0.09168349  0.05170387     0.07000
C616        C  0.58079711  0.08114768  0.04052420    -0.27200
H617        H  0.56546610  0.12188585  0.01238890     0.11700
H618        H  0.53605140  0.12215331  0.97054951     0.12800
H619        H  0.55903803  0.06231320  0.01519944     0.11900
H620        H  0.52947259  0.06259277  0.97364965     0.11200
H621        H  0.50620428  0.07348529  0.93649881     0.16600
H622        H  0.51024758  0.11145221  0.93383858     0.12500
H623        H  0.59114696  0.11071586  0.04825716     0.15300
H624        H  0.58629173  0.07273210  0.04976027     0.15100
C625        C  0.57327622  0.78717483  0.52549825    -0.17800
C626        C  0.59000496  0.78650225  0.51537461    -0.19900
C627        C  0.58574559  0.78844643  0.48907749     0.20700
C628        C  0.56436216  0.79084923  0.47270726    -0.02900
C629        C  0.54745303  0.79137096  0.48284685    -0.05900
C630        C  0.55200066  0.78969015  0.50943443     0.21000
C631        C  0.52606420  0.79375402  0.46643909     0.19100
C632        C  0.52177419  0.79560578  0.44011998    -0.17400
C633        C  0.53859292  0.79524849  0.43013419    -0.19600
C634        C  0.55992303  0.79295050  0.44628482     0.20600
C635        C  0.57694784  0.79296906  0.43656276    -0.32600
C636        C  0.59834117  0.79085688  0.45285679     0.01300
C637        C  0.60256762  0.78834004  0.47898227    -0.24000
C638        C  0.53521662  0.79066231  0.51948778    -0.28600
C639        C  0.51391233  0.79299009  0.50319200     0.07000
C640        C  0.50938261  0.79439014  0.47668708    -0.27200
H641        H  0.57700050  0.78579853  0.54591797     0.11700
H642        H  0.60633531  0.78463463  0.52818330     0.12800
H643        H  0.50544848  0.79746034  0.42730782     0.11900
H644        H  0.53494040  0.79685836  0.40980187     0.11200
H645        H  0.57355644  0.79474133  0.41634043     0.16600
H646        H  0.61904299  0.78677860  0.49171172     0.12500
H647        H  0.53865601  0.78949759  0.53993073     0.15300
H648        H  0.49297667  0.79630496  0.46416588     0.15100
C649        C  0.43441192  0.00915648  0.75291565    -0.17800
C650        C  0.43724385  0.99689955  0.75350087    -0.19900
C651        C  0.43202638  0.98999565  0.77156325     0.20700
C652        C  0.42329043  0.99544563  0.78874610    -0.02900
C653        C  0.42033827  0.00779601  0.78807274    -0.05900
C654        C  0.42626249  0.01469716  0.77034516     0.21000
C655        C  0.41230790  0.01327674  0.80584071     0.19100
C656        C  0.40652836  0.00634513  0.82344761    -0.17400
C657        C  0.40955312  0.99410826  0.82419836    -0.19600
C658        C  0.41831862  0.98862221  0.80729176     0.20600
C659        C  0.42297555  0.97651571  0.80924518    -0.32600
C660        C  0.43229832  0.97113160  0.79273796     0.01300
C661        C  0.43618605  0.97781951  0.77343970    -0.24000
C662        C  0.42488375  0.02704535  0.77114610    -0.28600
C663        C  0.41806062  0.03257429  0.78977168     0.07000
C664        C  0.41112586  0.02562216  0.80647722    -0.27200
H665        H  0.43902874  0.01432825  0.73919491     0.11700
H666        H  0.44397749  0.99284791  0.74018992     0.12800
H667        H  0.40022207  0.01042141  0.83709845     0.11900
H668        H  0.40550357  0.98896714  0.83840821     0.11200
H669        H  0.41982226  0.97131143  0.82400367     0.16600
H670        H  0.44355783  0.97367981  0.76082919     0.12500
H671        H  0.43035585  0.03232702  0.75827984     0.15300
H672        H  0.40555381  0.02983337  0.82062627     0.15100
C673        C  0.42111976  0.86565098  0.64664554    -0.17800
C674        C  0.42429962  0.87444971  0.66532128    -0.19900
C675        C  0.44408122  0.87526767  0.68582350     0.20700
C676        C  0.46095537  0.86726701  0.68732612    -0.02900
C677        C  0.45783376  0.85848525  0.66835744    -0.05900
C678        C  0.43772751  0.85758683  0.64809994     0.21000
C679        C  0.47474218  0.85051427  0.66986426     0.19100
C680        C  0.49461839  0.85142341  0.69016787    -0.17400
C681        C  0.49763215  0.86004571  0.70912926    -0.19600
C682        C  0.48085985  0.86793244  0.70796985     0.20600
C683        C  0.48357269  0.87638294  0.72725804    -0.32600
C684        C  0.46678628  0.88429160  0.72600435     0.01300
C685        C  0.44719749  0.88382032  0.70506227    -0.24000
C686        C  0.43453623  0.84858250  0.62978769    -0.28600
C687        C  0.45128486  0.84057621  0.63130227     0.07000
C688        C  0.47140129  0.84167726  0.65122814    -0.27200
H689        H  0.40563736  0.86511121  0.63115121     0.11700
H690        H  0.41119651  0.88053632  0.66388170     0.12800
H691        H  0.50776569  0.84537809  0.69153625     0.11900
H692        H  0.51303307  0.86049730  0.72479460     0.11200
H693        H  0.49881449  0.87684902  0.74319051     0.16600
H694        H  0.43417070  0.88988125  0.70411678     0.12500
H695        H  0.41909579  0.84787571  0.61426258     0.15300
H696        H  0.48433366  0.83547872  0.65262129     0.15100
C697        C  0.70646451  0.00803819  0.23098883    -0.17800
C698        C  0.71033937  0.99583420  0.23235354    -0.19900
C699        C  0.71542746  0.99001051  0.21277224     0.20700
C700        C  0.71745487  0.99663545  0.19215106    -0.02900
C701        C  0.71321719  0.00887271  0.19055814    -0.05900
C702        C  0.70741946  0.01459821  0.20990451     0.21000
C703        C  0.71392541  0.01527432  0.16902431     0.19100
C704        C  0.71993414  0.00959869  0.15002828    -0.17400
C705        C  0.72446699  0.99752989  0.15181738    -0.19600
C706        C  0.72275728  0.99095092  0.17245486     0.20600
C707        C  0.72503358  0.97868735  0.17286709    -0.32600
C708        C  0.72109494  0.97189378  0.19199998     0.01300
C709        C  0.71730396  0.97763402  0.21260994    -0.24000
C710        C  0.70194433  0.02666160  0.20725827    -0.28600
C711        C  0.70158345  0.03283555  0.18512488     0.07000
C712        C  0.70793290  0.02715764  0.16638593    -0.27200
H713        H  0.70212903  0.01228402  0.24606418     0.11700
H714        H  0.70884165  0.99090666  0.24840999     0.12800
H715        H  0.72068860  0.01444987  0.13349142     0.11900
H716        H  0.72857727  0.99326690  0.13660909     0.11200
H717        H  0.72867076  0.97439285  0.15736983     0.16600
H718        H  0.71443594  0.97249518  0.22760454     0.12500
H719        H  0.69696945  0.03108199  0.22167414     0.15300
H720        H  0.70792416  0.03199689  0.14948335     0.15100
C721        C  0.64002984  0.86200743  0.25867974    -0.17800
C722        C  0.63941630  0.85346067  0.27662272    -0.19900
C723        C  0.65727086  0.85184151  0.29926389     0.20700
C724        C  0.67582850  0.85902117  0.30408092    -0.02900
C725        C  0.67631969  0.86776158  0.28617893    -0.05900
C726        C  0.65843454  0.86915058  0.26322930     0.21000
C727        C  0.69481917  0.87498993  0.29108481     0.19100
C728        C  0.71262975  0.87342307  0.31379694    -0.17400
C729        C  0.71227494  0.86463418  0.33135923    -0.19600
C730        C  0.69402297  0.85735199  0.32659095     0.20600
C731        C  0.69376315  0.84831828  0.34374191    -0.32600
C732        C  0.67540705  0.84108876  0.33893280     0.01300
C733        C  0.65707227  0.84302879  0.31693839    -0.24000
C734        C  0.65935737  0.87757222  0.24511685    -0.28600
C735        C  0.67777023  0.88475563  0.24985567     0.07000
C736        C  0.69531342  0.88353308  0.27301517    -0.27200
H737        H  0.62615788  0.86299603  0.24120287     0.11700
H738        H  0.62505294  0.84800815  0.27263140     0.12800
H739        H  0.72694305  0.87890306  0.31783263     0.11900
H740        H  0.72632732  0.86348849  0.34860795     0.11200
H741        H  0.70782746  0.84691946  0.36087228     0.16600
H742        H  0.64294198  0.83739955  0.31312576     0.12500
H743        H  0.64570319  0.87858381  0.22740861     0.15300
H744        H  0.70962270  0.88898450  0.27664490     0.15100
C745        C  0.59769718  0.89261104  0.99736605    -0.17800
C746        C  0.58168235  0.89278434  0.97290299    -0.19900
C747        C  0.57257283  0.90352756  0.96158895     0.20700
C748        C  0.57984283  0.91420985  0.97496585    -0.02900
C749        C  0.59620151  0.91404956  0.99944458    -0.05900
C750        C  0.60501925  0.90318502  0.01082390     0.21000
C751        C  0.60359213  0.92476274  0.01260624     0.19100
C752        C  0.59448954  0.93550433  0.00136759    -0.17400
C753        C  0.57809941  0.93565062  0.97727490    -0.19600
C754        C  0.57067936  0.92506256  0.96397290     0.20600
C755        C  0.55416763  0.92515927  0.93992119    -0.32600
C756        C  0.54673501  0.91457258  0.92648383     0.01300
C757        C  0.55618414  0.90378600  0.93728275    -0.24000
C758        C  0.62087450  0.90310783  0.03550436    -0.28600
C759        C  0.62835051  0.91377054  0.04856102     0.07000
C760        C  0.61979769  0.92455245  0.03690014    -0.27200
H761        H  0.60434337  0.88419804  0.00577697     0.11700
H762        H  0.57629493  0.88450507  0.96291988     0.12800
H763        H  0.59995516  0.94379516  0.01129271     0.11900
H764        H  0.57121024  0.94404778  0.96904950     0.11200
H765        H  0.54726406  0.93353284  0.93157376     0.16600
H766        H  0.55045642  0.89559317  0.92707144     0.12500
H767        H  0.62753497  0.89478866  0.04448493     0.15300
H768        H  0.62530597  0.93278500  0.04708055     0.15100
C769        C  0.28710401  0.75487782  0.51670389    -0.17800
C770        C  0.30305930  0.76362925  0.52134902    -0.19900
C771        C  0.32035808  0.76231048  0.51218920     0.20700
C772        C  0.32166060  0.75202541  0.49839385    -0.02900
C773        C  0.30558931  0.74318859  0.49374417    -0.05900
C774        C  0.28816235  0.74465649  0.50279678     0.21000
C775        C  0.30685489  0.73295274  0.47979526     0.19100
C776        C  0.32426378  0.73156472  0.47087420    -0.17400
C777        C  0.34015765  0.74031570  0.47545963    -0.19600
C778        C  0.33894619  0.75058685  0.48909011     0.20600
C779        C  0.35477944  0.75940574  0.49361836    -0.32600
C780        C  0.35375199  0.76969562  0.50745516     0.01300
C781        C  0.33636859  0.77107639  0.51659704    -0.24000
C782        C  0.27187227  0.73600589  0.49733844    -0.28600
C783        C  0.27263633  0.72590970  0.48273385     0.07000
C784        C  0.29050298  0.72437613  0.47454579    -0.27200
H785        H  0.27384918  0.75614678  0.52382454     0.11700
H786        H  0.30181611  0.77145719  0.53203183     0.12800
H787        H  0.32548974  0.72375573  0.46015841     0.11900
H788        H  0.35338945  0.73906366  0.46824021     0.11200
H789        H  0.36805636  0.75809393  0.48655356     0.16600
H790        H  0.33519776  0.77895551  0.52712956     0.12500
H791        H  0.25838668  0.73735504  0.50396560     0.15300
H792        H  0.29162033  0.71661855  0.46366970     0.15100
C793        C  0.79964720  0.73422354  0.51303600    -0.17800
C794        C  0.78198745  0.74196515  0.50514403    -0.19900
C795        C  0.78169281  0.75143630  0.48868426     0.20700
C796        C  0.79940772  0.75318144  0.48026497    -0.02900
C797        C  0.81718789  0.74536570  0.48818733    -0.05900
C798        C  0.81726818  0.73581874  0.50456543     0.21000
C799        C  0.83479415  0.74706356  0.47955609     0.19100
C800        C  0.83460351  0.75659635  0.46331009    -0.17400
C801        C  0.81699926  0.76435034  0.45548850    -0.19600
C802        C  0.79930636  0.76268137  0.46376845     0.20600
C803        C  0.78145723  0.77030056  0.45563257    -0.32600
C804        C  0.76354240  0.76855199  0.46359693     0.01300
C805        C  0.76390902  0.75912056  0.48032533    -0.24000
C806        C  0.83489732  0.72800320  0.51206916    -0.28600
C807        C  0.85248832  0.72956852  0.50338559     0.07000
C808        C  0.85225316  0.73917566  0.48716685    -0.27200
H809        H  0.79946867  0.72694367  0.52567296     0.11700
H810        H  0.76852375  0.74051399  0.51181470     0.12800
H811        H  0.84804124  0.75802837  0.45655945     0.11900
H812        H  0.81716848  0.77161840  0.44283609     0.11200
H813        H  0.78160852  0.77753806  0.44295539     0.16600
H814        H  0.75034036  0.75761160  0.48672324     0.12500
H815        H  0.83476782  0.72070534  0.52463977     0.15300
H816        H  0.86555634  0.74056460  0.48022128     0.15100
C817        C  0.09668778  0.70774969  0.53430115    -0.17800
C818        C  0.07898405  0.70855779  0.54274474    -0.19900
C819        C  0.05776927  0.70724260  0.52531585     0.20700
C820        C  0.05431259  0.70521831  0.49906255    -0.02900
C821        C  0.07218109  0.70421315  0.49062490    -0.05900
C822        C  0.09346645  0.70550009  0.50832878     0.21000
C823        C  0.06873970  0.70180484  0.46453064     0.19100
C824        C  0.04751108  0.70064843  0.44703702    -0.17400
C825        C  0.02978584  0.70180943  0.45532434    -0.19600
C826        C  0.03302008  0.70403538  0.48129231     0.20600
C827        C  0.01536147  0.70487102  0.48988853    -0.32600
C828        C  0.01877960  0.70649614  0.51612032     0.01300
C829        C  0.03996725  0.70772780  0.53371498    -0.24000
C830        C  0.11114799  0.70440254  0.49979202    -0.28600
C831        C  0.10783212  0.70182311  0.47387313     0.07000
C832        C  0.08657428  0.70054274  0.45638792    -0.27200
H833        H  0.11291079  0.70876654  0.54813336     0.11700
H834        H  0.08189276  0.71016241  0.56294028     0.12800
H835        H  0.04461083  0.69882059  0.42692331     0.11900
H836        H  0.01356237  0.70084568  0.44147704     0.11200
H837        H  0.99902616  0.70379264  0.47636176     0.16600
H838        H  0.04255459  0.70904741  0.55394061     0.12500
H839        H  0.12747344  0.70530013  0.51343552     0.15300
H840        H  0.08386209  0.69869665  0.43632786     0.15100
C841        C  0.22853428  0.49302739  0.21682665    -0.17800
C842        C  0.22728357  0.50536621  0.21779603    -0.19900
C843        C  0.22484360  0.51220401  0.19584066     0.20700
C844        C  0.22451323  0.50656691  0.17298357    -0.02900
C845        C  0.22570225  0.49413666  0.17198365    -0.05900
C846        C  0.22733571  0.48731709  0.19386604     0.21000
C847        C  0.22451959  0.48853208  0.14881572     0.19100
C848        C  0.22287325  0.49535998  0.12710373    -0.17400
C849        C  0.22174582  0.50765880  0.12811229    -0.19600
C850        C  0.22216653  0.51331083  0.15080097     0.20600
C851        C  0.21925938  0.52553325  0.15127792    -0.32600
C852        C  0.21795220  0.53114324  0.17334801     0.01300
C853        C  0.22166580  0.52448734  0.19593100    -0.24000
C854        C  0.22706151  0.47492231  0.19216638    -0.28600
C855        C  0.22500850  0.46925313  0.16877902     0.07000
C856        C  0.22432648  0.47618902  0.14742557    -0.27200
H857        H  0.22993899  0.48794156  0.23386586     0.11700
H858        H  0.22770207  0.50954190  0.23556978     0.12800
H859        H  0.22201619  0.49118119  0.10920986     0.11900
H860        H  0.21998548  0.51273893  0.11091555     0.11200
H861        H  0.21709223  0.53059444  0.13397175     0.16600
H862        H  0.22086822  0.52869977  0.21313716     0.12500
H863        H  0.22790529  0.46976431  0.20890139     0.15300
H864        H  0.22299556  0.47208972  0.12935843     0.15100
C865        C  0.13891841  0.64305175  0.29219773    -0.17800
C866        C  0.13701492  0.63453564  0.27324749    -0.19900
C867        C  0.15494745  0.62765007  0.27387609     0.20700
C868        C  0.17497716  0.62928913  0.29392217    -0.02900
C869        C  0.17695714  0.63797048  0.31294420    -0.05900
C870        C  0.15882580  0.64487076  0.31204627     0.21000
C871        C  0.19709109  0.63980279  0.33271113     0.19100
C872        C  0.21494629  0.63279456  0.33351218    -0.17400
C873        C  0.21294099  0.62412207  0.31478545    -0.19600
C874        C  0.19306165  0.62234129  0.29482751     0.20600
C875        C  0.19102560  0.61386563  0.27557321    -0.32600
C876        C  0.17121586  0.61237704  0.25517915     0.01300
C877        C  0.15323282  0.61925270  0.25465227    -0.24000
C878        C  0.16091422  0.65352114  0.33089321    -0.28600
C879        C  0.18096927  0.65551885  0.35051040     0.07000
C880        C  0.19900581  0.64862158  0.35124866    -0.27200
H881        H  0.12484723  0.64827117  0.29123420     0.11700
H882        H  0.12149651  0.63336749  0.25800214     0.12800
H883        H  0.23051852  0.63404522  0.34860877     0.11900
H884        H  0.22698664  0.61887289  0.31579675     0.11200
H885        H  0.20502274  0.60868066  0.27611318     0.16600
H886        H  0.13781152  0.61807166  0.23925475     0.12500
H887        H  0.14697221  0.65884366  0.32998165     0.15300
H888        H  0.21447681  0.65000204  0.36644260     0.15100
C889        C  0.91231884  0.49093528  0.83458172    -0.17800
C890        C  0.91033935  0.50321992  0.83544405    -0.19900
C891        C  0.91106095  0.51024681  0.81489817     0.20700
C892        C  0.91285179  0.50481656  0.79280237    -0.02900
C893        C  0.91479140  0.49240318  0.79190313    -0.05900
C894        C  0.91501817  0.48547356  0.81314642     0.21000
C895        C  0.91746401  0.48698995  0.77024278     0.19100
C896        C  0.91733529  0.49399474  0.74929569    -0.17400
C897        C  0.91544451  0.50629639  0.75019912    -0.19600
C898        C  0.91361360  0.51181049  0.77206065     0.20600
C899        C  0.91346999  0.52419160  0.77398880    -0.32600
C900        C  0.91285939  0.52968161  0.79654939     0.01300
C901        C  0.91092046  0.52261172  0.81653516    -0.24000
C902        C  0.91898560  0.47329644  0.81311758    -0.28600
C903        C  0.92299988  0.46793611  0.79227653     0.07000
C904        C  0.92132141  0.47477142  0.77045565    -0.27200
H905        H  0.91232763  0.48573077  0.85099996     0.11700
H906        H  0.90883717  0.50724898  0.85248411     0.12800
H907        H  0.91928649  0.48998313  0.73245566     0.11900
H908        H  0.91595371  0.51151812  0.73405105     0.11200
H909        H  0.91493394  0.52949230  0.75842250     0.16600
H910        H  0.90996985  0.52671054  0.83377938     0.12500
H911        H  0.91982892  0.46807360  0.82982683     0.15300
H912        H  0.92437659  0.47076664  0.75426637     0.15100
C913        C  0.90702548  0.63329431  0.63935793    -0.17800
C914        C  0.90747451  0.62521116  0.65865773    -0.19900
C915        C  0.92545309  0.62466822  0.68152771     0.20700
C916        C  0.94333110  0.63219233  0.68473963    -0.02900
C917        C  0.94297178  0.64026044  0.66517987    -0.05900
C918        C  0.92459846  0.64093529  0.64254751     0.21000
C919        C  0.96084519  0.64779864  0.66850659     0.19100
C920        C  0.97897917  0.64712427  0.69114123    -0.17400
C921        C  0.97925914  0.63920727  0.71058848    -0.19600
C922        C  0.96145998  0.63178751  0.70765683     0.20600
C923        C  0.96144550  0.62404873  0.72736223    -0.32600
C924        C  0.94364842  0.61658431  0.72449144     0.01300
C925        C  0.92578727  0.61685207  0.70136092    -0.24000
C926        C  0.92396864  0.64939033  0.62376778    -0.28600
C927        C  0.94156083  0.65710139  0.62724984     0.07000
C928        C  0.96009958  0.65607483  0.64943828    -0.27200
H929        H  0.89284802  0.63364877  0.62205088     0.11700
H930        H  0.89362862  0.61947534  0.65581577     0.12800
H931        H  0.99284332  0.65283819  0.69395775     0.11900
H932        H  0.99334482  0.63895408  0.72802916     0.11200
H933        H  0.97544856  0.62378537  0.74487524     0.16600
H934        H  0.91195660  0.61116821  0.69898027     0.12500
H935        H  0.90974915  0.65001003  0.60654804     0.15300
H936        H  0.97367613  0.66201244  0.65238054     0.15100
C937        C  0.09122970  0.58311425  0.98035359    -0.17800
C938        C  0.07486432  0.58346573  0.95615963    -0.19900
C939        C  0.05375236  0.58696243  0.95372705     0.20700
C940        C  0.04915516  0.59028971  0.97587095    -0.02900
C941        C  0.06575659  0.59010956  0.00023045    -0.05900
C942        C  0.08681797  0.58636021  0.00250960     0.21000
C943        C  0.06117710  0.59349829  0.02233098     0.19100
C944        C  0.04010774  0.59708221  0.01987723    -0.17400
C945        C  0.02358428  0.59708143  0.99581518    -0.19600
C946        C  0.02789092  0.59362006  0.97374386     0.20600
C947        C  0.01127748  0.59328596  0.94964408    -0.32600
C948        C  0.01580982  0.59001319  0.92761465     0.01300
C949        C  0.03707487  0.58702518  0.92963944    -0.24000
C950        C  0.10299186  0.58574992  0.02692695    -0.28600
C951        C  0.09847558  0.58894664  0.04912530     0.07000
C952        C  0.07760146  0.59301186  0.04656257    -0.27200
H953        H  0.10732380  0.58023897  0.98175006     0.11700
H954        H  0.07866294  0.58086693  0.93937986     0.12800
H955        H  0.03632879  0.59972806  0.03663969     0.11900
H956        H  0.00738495  0.59972989  0.99449120     0.11200
H957        H  0.99482437  0.59560480  0.94793678     0.16600
H958        H  0.04044304  0.58442009  0.91256512     0.12500
H959        H  0.11908522  0.58275287  0.02861913     0.15300
H960        H  0.07387745  0.59541500  0.06349401     0.15100
loop_ 
_geom_bond_atom_site_label_1 
_geom_bond_atom_site_label_2 
_geom_bond_distance 
_geom_bond_site_symmetry_2 
_ccdc_geom_bond_type 
N1            N2   1.322       .  A
N1            C5   1.347       .  A
N1           Cu9   2.080       .  S
N2            C3   1.343       .  A
N2           Cu8   2.075       .  S
C3            C4   1.387       .  A
C3            H6   1.082       .  S
C4            C5   1.389       .  A
C4          C900   1.487       .  S
C5            H7   1.082       .  S
Cu8          N11   2.075       .  S
Cu9          N19   2.079       .  S
Cu10         N12   2.076       .  S
Cu10         N18   2.076       .  S
N11          N12   1.322       .  A
N11          C15   1.346       .  A
N12          C13   1.346       .  A
C13          C14   1.382       .  A
C13          H16   1.082   1_655  S
C14          C15   1.382       .  A
C14         C948   1.472   1_655  S
C15          H17   1.082       .  S
N18          N19   1.322       .  A
N18          C22   1.344       .  A
N19          C20   1.347       .  A
C20          C21   1.387       .  A
C20          H23   1.082       .  S
C21          C22   1.386       .  A
C21         C924   1.483       .  S
C22          H24   1.081       .  S
N25          N26   1.321       .  A
N25          C29   1.348       .  A
N25         Cu33   2.079       .  S
N26          C27   1.339       .  A
N26         Cu32   2.064       .  S
C27          C28   1.385       .  A
C27          H30   1.081       .  S
C28          C29   1.390       .  A
C28         C852   1.484       .  S
C29          H31   1.082       .  S
Cu32         N35   2.064       .  S
Cu33         N43   2.080       .  S
Cu34         N36   2.083       .  S
Cu34         N42   2.084       .  S
N35          N36   1.320       .  A
N35          C39   1.344       .  A
N36          C37   1.347       .  A
C37          C38   1.390       .  A
C37          H40   1.082       .  S
C38          C39   1.386       .  A
C38         C951   1.485       .  S
C39          H41   1.081       .  S
N42          N43   1.323       .  A
N42          C46   1.345       .  A
N43          C44   1.347       .  A
C44          C45   1.387       .  A
C44          H47   1.081       .  S
C45          C46   1.387       .  A
C45         C876   1.485       .  S
C46          H48   1.081       .  S
N49          N50   1.320       .  A
N49          C53   1.341       .  A
N49         Cu57   2.064       .  S
N50          C51   1.343       .  A
N50         Cu56   2.069       .  S
C51          C52   1.388       .  A
C51          H54   1.081       .  S
C52          C53   1.387       .  A
C52         C807   1.485       .  S
C53          H55   1.081       .  S
Cu56         N59   2.069       .  S
Cu57         N67   2.064       .  S
Cu58         N60   2.071       .  S
Cu58         N66   2.070       .  S
N59          N60   1.321       .  A
N59          C63   1.344       .  A
N60          C61   1.344       .  A
C61          C62   1.386       .  A
C61          H64   1.081       .  S
C62          C63   1.386       .  A
C62         C927   1.480       .  S
C63          H65   1.082       .  S
N66          N67   1.321       .  A
N66          C70   1.343       .  A
N67          C68   1.344       .  A
C68          C69   1.383   1_655  A
C68          H71   1.082       .  S
C69          C70   1.383   1_455  A
C69         C828   1.472       .  S
C70          H72   1.081   1_655  S
N73          N74   1.321       .  A
N73          C77   1.344       .  A
N73         Cu81   2.070       .  S
N74          C75   1.345       .  A
N74         Cu80   2.084       .  S
C75          C76   1.391       .  A
C75          H78   1.080       .  S
C76          C77   1.388       .  A
C76         C783   1.490       .  S
C77          H79   1.080       .  S
Cu80         N83   2.084       .  S
Cu81         N91   2.070       .  S
Cu82         N84   2.074       .  S
Cu82         N90   2.074       .  S
N83          N84   1.322       .  A
N83          C87   1.347       .  A
N84          C85   1.344       .  A
C85          C86   1.386       .  A
C85          H88   1.081       .  S
C86          C87   1.388       .  A
C86         C879   1.485       .  S
C87          H89   1.081       .  S
N90          N91   1.321       .  A
N90          C94   1.344       .  A
N91          C92   1.345       .  A
C92          C93   1.386       .  A
C92          H95   1.081       .  S
C93          C94   1.386       .  A
C93         C831   1.480       .  S
C94          H96   1.081       .  S
N97          N98   1.320       .  A
N97         C101   1.347       .  A
N97        Cu105   2.069       .  S
N98          C99   1.338       .  A
N98        Cu104   2.061       .  S
C99         C100   1.385       .  A
C99         H102   1.082       .  S
C100        C101   1.388       .  A
C100        C708   1.480       .  S
C101        H103   1.081       .  S
Cu104       N107   2.062       .  S
Cu105       N115   2.070       .  S
Cu106       N108   2.071       .  S
Cu106       N114   2.073       .  S
N107        N108   1.320       .  A
N107        C111   1.342       .  A
N108        C109   1.346       .  A
C109        C110   1.385       .  A
C109        H112   1.082       .  S
C110        C111   1.383       .  A
C110        C759   1.475       .  S
C111        H113   1.082       .  S
N114        N115   1.323       .  A
N114        C118   1.343       .  A
N115        C116   1.344       .  A
C116        C117   1.383       .  A
C116        H119   1.081       .  S
C117        C118   1.383       .  A
C117        C735   1.475       .  S
C118        H120   1.082       .  S
N121        N122   1.320       .  A
N121        C125   1.345       .  A
N121       Cu129   2.062       .  S
N122        C123   1.342       .  A
N122       Cu128   2.061       .  S
C123        C124   1.382       .  A
C123        H126   1.082       .  S
C124        C125   1.384       .  A
C124        C660   1.471       .  S
C125        H127   1.082       .  S
Cu128       N131   2.062       .  S
Cu129       N139   2.063       .  S
Cu130       N132   2.071       .  S
Cu130       N138   2.073       .  S
N131        N132   1.321       .  A
N131        C135   1.340       .  A
N132        C133   1.347       .  A
C133        C134   1.387       .  A
C133        H136   1.082       .  S
C134        C135   1.383       .  A
C134        C756   1.478       .  S
C135        H137   1.081       .  S
N138        N139   1.323       .  A
N138        C142   1.343       .  A
N139        C140   1.343       .  A
C140        C141   1.381       .  A
C140        H143   1.081       .  S
C141        C142   1.384       .  A
C141        C684   1.472       .  S
C142        H144   1.081       .  S
N145        N146   1.319       .  A
N145        C149   1.341       .  A
N145       Cu153   2.057       .  S
N146        C147   1.342       .  A
N146       Cu152   2.065       .  S
C147        C148   1.389       .  A
C147        H150   1.080       .  S
C148        C149   1.387       .  A
C148        C804   1.483       .  S
C149        H151   1.081       .  S
Cu152       N155   2.066       .  S
Cu153       N163   2.057       .  S
Cu154       N156   2.071       .  S
Cu154       N162   2.071       .  S
N155        N156   1.322       .  A
N155        C159   1.342       .  A
N156        C157   1.345       .  A
C157        C158   1.384       .  A
C157        H160   1.082       .  S
C158        C159   1.382       .  A
C158        C732   1.473       .  S
C159        H161   1.082       .  S
N162        N163   1.321       .  A
N162        C166   1.343       .  A
N163        C164   1.342       .  A
C164        C165   1.383       .  A
C164        H167   1.081       .  S
C165        C166   1.385       .  A
C165        C636   1.475       .  S
C166        H168   1.082       .  S
N169        N170   1.320       .  A
N169        C173   1.342       .  A
N169       Cu177   2.069       .  S
N170        C171   1.345       .  A
N170       Cu176   2.072       .  S
C171        C172   1.389       .  A
C171        H174   1.082       .  S
C172        C173   1.388       .  A
C172        C780   1.488       .  S
C173        H175   1.081       .  S
Cu176       N179   2.072       .  S
Cu177       N187   2.068       .  S
Cu178       N180   2.061       .  S
Cu178       N186   2.060       .  S
N179        N180   1.322       .  A
N179        C183   1.344       .  A
N180        C181   1.342       .  A
C181        C182   1.383       .  A
C181        H184   1.081       .  S
C182        C183   1.385       .  A
C182        C687   1.475       .  S
C183        H185   1.082       .  S
N186        N187   1.321       .  A
N186        C190   1.343       .  A
N187        C188   1.343       .  A
C188        C189   1.383       .  A
C188        H191   1.082       .  S
C189        C190   1.382       .  A
C189        C639   1.471       .  S
C190        H192   1.081       .  S
N193        N194   1.320       .  A
N193        C197   1.345       .  A
N193       Cu201   2.072       .  S
N194        C195   1.341       .  A
N194       Cu200   2.061       .  S
C195        C196   1.384       .  A
C195        H198   1.082       .  S
C196        C197   1.387       .  A
C196        C663   1.478       .  S
C197        H199   1.082       .  S
Cu200       N203   2.061       .  S
Cu201       N211   2.073       .  S
Cu202       N204   2.078       .  S
Cu202       N210   2.079       .  S
N203        N204   1.321       .  A
N203        C207   1.341       .  A
N204        C205   1.347       .  A
C205        C206   1.388       .  A
C205        H208   1.082       .  S
C206        C207   1.384       .  A
C206        C612   1.480       .  S
C207        H209   1.082       .  S
N210        N211   1.323       .  A
N210        C214   1.345       .  A
N211        C212   1.345       .  A
C212        C213   1.383       .  A
C212        H215   1.081       .  S
C213        C214   1.384       .  A
C213        C588   1.477       .  S
C214        H216   1.082       .  S
N217        N218   1.320       .  A
N217        C221   1.348       .  A
N217       Cu225   2.069       .  S
N218        C219   1.339       .  A
N218       Cu224   2.053       .  S
C219        C220   1.380       .  A
C219        H222   1.082       .  S
C220        C221   1.384       .  A
C220        C711   1.469       .  S
C221        H223   1.082       .  S
Cu224       N227   2.053       .  S
Cu225       N235   2.071       .  S
Cu226       N228   2.077       .  S
Cu226       N234   2.079       .  S
N227        N228   1.319       .  A
N227        C231   1.338       .  A
N228        C229   1.348       .  A
C229        C230   1.390       .  A
C229        H232   1.082       .  S
C230        C231   1.384       .  A
C230        C615   1.482       .  S
C231        H233   1.081       .  S
N234        N235   1.324       .  A
N234        C238   1.344       .  A
N235        C236   1.344       .  A
C236        C237   1.383       .  A
C236        H239   1.081       .  S
C237        C238   1.385       .  A
C237        C567   1.477       .  S
C238        H240   1.082       .  S
N241        N242   1.322       .  A
N241        C245   1.345       .  A
N241       Cu249   2.075       .  S
N242        C243   1.345       .  A
N242       Cu248   2.076       .  S
C243        C244   1.387       .  A
C243        H246   1.081       .  S
C244        C245   1.387       .  A
C244        C516   1.484       .  S
C245        H247   1.081       .  S
Cu248       N251   2.076       .  S
Cu249       N259   2.074       .  S
Cu250       N252   2.068       .  S
Cu250       N258   2.067       .  S
N251        N252   1.321       .  A
N251        C255   1.346       .  A
N252        C253   1.343       .  A
C253        C254   1.385       .  A
C253        H256   1.081       .  S
C254        C255   1.386       .  A
C254        C564   1.479       .  S
C255        H257   1.082       .  S
N258        N259   1.322       .  A
N258        C262   1.343       .  A
N259        C260   1.346       .  A
C260        C261   1.384       .  A
C260        H263   1.082       .  S
C261        C262   1.381       .  A
C261        C540   1.472       .  S
C262        H264   1.081       .  S
N265        N266   1.320       .  A
N265        C269   1.346       .  A
N265       Cu273   2.076       .  S
N266        C267   1.341       .  A
N266       Cu272   2.061       .  S
C267        C268   1.386       .  A
C267        H270   1.081       .  S
C268        C269   1.390       .  A
C268        C492   1.485       .  S
C269        H271   1.081       .  S
Cu272       N275   2.061       .  S
Cu273       N283   2.076       .  S
Cu274       N276   2.077       .  S
Cu274       N282   2.078       .  S
N275        N276   1.321       .  A
N275        C279   1.342       .  A
N276        C277   1.346       .  A
C277        C278   1.385       .  A
C277        H280   1.082       .  S
C278        C279   1.381       .  A
C278        C591   1.474       .  S
C279        H281   1.083       .  S
N282        N283   1.323       .  A
N282        C286   1.346       .  A
N283        C284   1.343       .  A
C284        C285   1.385       .  A
C284        H287   1.081       .  S
C285        C286   1.385       .  A
C285        C543   1.479       .  S
C286        H288   1.081       .  S
N289        N290   1.320       .  A
N289        C293   1.346       .  A
N289       Cu297   2.075       .  S
N290        C291   1.341       .  A
N290       Cu296   2.066       .  S
C291        C292   1.388       .  A
C291        H294   1.079       .  S
C292        C293   1.390       .  A
C292        C855   1.488       .  S
C293        H295   1.081       .  S
Cu296       N299   2.065       .  S
Cu297       N307   2.075       .  S
Cu298       N300   2.075       .  S
Cu298       N306   2.076       .  S
N299        N300   1.320       .  A
N299        C303   1.343       .  A
N300        C301   1.346       .  A
C301        C302   1.387       .  A
C301        H304   1.082       .  S
C302        C303   1.384       .  A
C302        C471   1.479       .  S
C303        H305   1.083       .  S
N306        N307   1.323       .  A
N306        C310   1.344       .  A
N307        C308   1.346       .  A
C308        C309   1.384       .  A
C308        H311   1.081       .  S
C309        C310   1.384       .  A
C309        C444   1.476       .  S
C310        H312   1.082       .  S
N313        N314   1.323       .  A
N313        C317   1.348       .  A
N313       Cu321   2.088       .  S
N314        C315   1.343       .  A
N314       Cu320   2.076       .  S
C315        C316   1.385       .  A
C315        H318   1.082       .  S
C316        C317   1.389       .  A
C316        C903   1.486       .  S
C317        H319   1.083       .  S
Cu320       N323   2.075   1_655  S
Cu321       N331   2.088       .  S
Cu322       N324   2.062       .  S
Cu322       N330   2.062   1_455  S
N323        N324   1.321       .  A
N323        C327   1.347       .  A
N324        C325   1.343       .  A
C325        C326   1.382       .  A
C325        H328   1.082       .  S
C326        C327   1.386       .  A
C326        C468   1.474       .  S
C327        H329   1.082       .  S
N330        N331   1.321       .  A
N330        C334   1.341   1_655  A
N331        C332   1.348       .  A
C332        C333   1.392       .  A
C332        H335   1.080       .  S
C333        C334   1.385   1_655  A
C333        C420   1.487       .  S
C334        H336   1.081       .  S
N337        N338   1.320       .  A
N337        C341   1.343       .  A
N337       Cu345   2.060       .  S
N338        C339   1.344       .  A
N338       Cu344   2.075       .  S
C339        C340   1.388       .  A
C339        H342   1.081       .  S
C340        C341   1.386       .  A
C340        C519   1.482       .  S
C341        H343   1.081       .  S
Cu344       N347   2.076       .  S
Cu345       N355   2.060   1_655  S
Cu346       N348   2.075   1_455  S
Cu346       N354   2.074       .  S
N347        N348   1.322       .  A
N347        C351   1.344       .  A
N348        C349   1.346   1_655  A
C349        C350   1.387   1_455  A
C349        H352   1.081       .  S
C350        C351   1.387       .  A
C350        C423   1.483       .  S
C351        H353   1.081       .  S
N354        N355   1.322       .  A
N354        C358   1.344       .  A
N355        C356   1.343       .  A
C356        C357   1.380       .  A
C356        H359   1.081       .  S
C357        C358   1.383       .  A
C357        C396   1.468       .  S
C358        H360   1.081       .  S
N361        N362   1.318       .  A
N361        C365   1.344       .  A
N361       Cu369   2.062       .  S
N362        C363   1.343       .  A
N362       Cu368   2.069       .  S
C363        C364   1.389       .  A
C363        H366   1.081       .  S
C364        C365   1.389       .  A
C364        C495   1.487       .  S
C365        H367   1.081       .  S
Cu368       N371   2.070       .  S
Cu369       N379   2.062       .  S
Cu370       N372   2.079       .  S
Cu370       N378   2.079       .  S
N371        N372   1.323       .  A
N371        C375   1.343       .  A
N372        C373   1.347       .  A
C373        C374   1.385       .  A
C373        H376   1.083       .  S
C374        C375   1.382       .  A
C374        C447   1.477       .  S
C375        H377   1.082       .  S
N378        N379   1.323       .  A
N378        C382   1.348       .  A
N379        C380   1.340       .  A
C380        C381   1.379       .  A
C380        H383   1.082       .  S
C381        C382   1.385       .  A
C381        C399   1.471       .  S
C382        H384   1.081       .  S
C385        C386   1.400       .  A
C385        C390   1.404       .  A
C385        H401   1.083       .  S
C386        C387   1.404       .  A
C386        H402   1.083       .  S
C387        C397   1.403       .  A
C387        C388   1.411       .  A
C388        C394   1.413       .  A
C388        C389   1.409       .  A
C389        C391   1.410       .  A
C389        C390   1.413       .  A
C390        C398   1.405       .  A
C391        C400   1.396       .  A
C391        C392   1.402       .  A
C392        C393   1.396       .  A
C392        H403   1.084       .  S
C393        C394   1.402       .  A
C393        H404   1.083       .  S
C394        C395   1.399       .  A
C395        C396   1.401       .  A
C395        H405   1.084       .  S
C396        C397   1.405       .  A
C397        H406   1.084       .  S
C398        C399   1.405       .  A
C398        H407   1.084       .  S
C399        C400   1.403       .  A
C400        H408   1.084       .  S
C409        C410   1.399       .  A
C409        C414   1.404       .  A
C409        H425   1.083       .  S
C410        C411   1.403       .  A
C410        H426   1.084       .  S
C411        C421   1.404       .  A
C411        C412   1.412       .  A
C412        C418   1.410   1_655  A
C412        C413   1.412       .  A
C413        C415   1.412   1_655  A
C413        C414   1.410       .  A
C414        C422   1.402       .  A
C415        C424   1.404       .  A
C415        C416   1.403       .  A
C416        C417   1.399       .  A
C416        H427   1.084       .  S
C417        C418   1.404       .  A
C417        H428   1.082       .  S
C418        C419   1.403       .  A
C419        C420   1.410   1_455  A
C419        H429   1.081       .  S
C420        C421   1.407       .  A
C421        H430   1.083       .  S
C422        C423   1.407       .  A
C422        H431   1.083       .  S
C423        C424   1.407   1_655  A
C424        H432   1.084       .  S
C433        C434   1.400       .  A
C433        C438   1.404       .  A
C433        H449   1.083       .  S
C434        C435   1.404       .  A
C434        H450   1.084       .  S
C435        C445   1.404       .  A
C435        C436   1.412       .  A
C436        C442   1.412       .  A
C436        C437   1.411       .  A
C437        C439   1.411       .  A
C437        C438   1.412       .  A
C438        C446   1.404       .  A
C439        C448   1.401       .  A
C439        C440   1.403       .  A
C440        C441   1.398       .  A
C440        H451   1.084       .  S
C441        C442   1.403       .  A
C441        H452   1.083       .  S
C442        C443   1.402       .  A
C443        C444   1.405       .  A
C443        H453   1.084       .  S
C444        C445   1.405       .  A
C445        H454   1.085       .  S
C446        C447   1.405       .  A
C446        H455   1.083       .  S
C447        C448   1.405       .  A
C448        H456   1.084       .  S
C457        C458   1.398       .  A
C457        C462   1.403       .  A
C457        H473   1.083       .  S
C458        C459   1.403       .  A
C458        H474   1.084       .  S
C459        C469   1.401       .  A
C459        C460   1.411       .  A
C460        C466   1.412       .  A
C460        C461   1.411       .  A
C461        C463   1.412   1_556  A
C461        C462   1.411       .  A
C462        C470   1.402   1_556  A
C463        C472   1.404       .  A
C463        C464   1.404       .  A
C464        C465   1.399   1_554  A
C464        H475   1.084       .  S
C465        C466   1.403       .  A
C465        H476   1.083       .  S
C466        C467   1.404       .  A
C467        C468   1.404       .  A
C467        H477   1.084       .  S
C468        C469   1.405       .  A
C469        H478   1.084       .  S
C470        C471   1.406       .  A
C470        H479   1.084       .  S
C471        C472   1.406       .  A
C472        H480   1.084       .  S
C481        C482   1.398       .  A
C481        C486   1.403       .  A
C481        H497   1.083       .  S
C482        C483   1.403       .  A
C482        H498   1.084       .  S
C483        C493   1.403       .  A
C483        C484   1.411       .  A
C484        C490   1.410       .  A
C484        C485   1.411       .  A
C485        C487   1.411       .  A
C485        C486   1.410       .  A
C486        C494   1.401       .  A
C487        C496   1.403       .  A
C487        C488   1.404       .  A
C488        C489   1.399       .  A
C488        H499   1.084       .  S
C489        C490   1.404       .  A
C489        H500   1.083       .  S
C490        C491   1.402       .  A
C491        C492   1.409       .  A
C491        H501   1.082       .  S
C492        C493   1.407       .  A
C493        H502   1.083       .  S
C494        C495   1.408       .  A
C494        H503   1.081       .  S
C495        C496   1.409       .  A
C496        H504   1.082       .  S
C505        C506   1.398       .  A
C505        C510   1.403       .  A
C505        H521   1.083       .  S
C506        C507   1.403       .  A
C506        H522   1.084       .  S
C507        C517   1.402       .  A
C507        C508   1.411       .  A
C508        C514   1.411       .  A
C508        C509   1.411       .  A
C509        C511   1.411       .  A
C509        C510   1.411       .  A
C510        C518   1.401       .  A
C511        C520   1.403       .  A
C511        C512   1.404       .  A
C512        C513   1.399       .  A
C512        H523   1.084       .  S
C513        C514   1.404       .  A
C513        H524   1.083       .  S
C514        C515   1.403       .  A
C515        C516   1.408       .  A
C515        H525   1.082       .  S
C516        C517   1.407       .  A
C517        H526   1.083       .  S
C518        C519   1.406       .  A
C518        H527   1.083       .  S
C519        C520   1.408       .  A
C520        H528   1.083       .  S
C529        C530   1.397       .  A
C529        C534   1.403       .  A
C529        H545   1.082       .  S
C530        C531   1.402       .  A
C530        H546   1.085       .  S
C531        C541   1.400       .  A
C531        C532   1.412       .  A
C532        C538   1.412       .  A
C532        C533   1.411       .  A
C533        C535   1.412       .  A
C533        C534   1.411       .  A
C534        C542   1.400       .  A
C535        C544   1.405       .  A
C535        C536   1.404       .  A
C536        C537   1.401       .  A
C536        H547   1.083       .  S
C537        C538   1.404       .  A
C537        H548   1.083       .  S
C538        C539   1.405       .  A
C539        C540   1.405       .  A
C539        H549   1.084       .  S
C540        C541   1.403       .  A
C541        H550   1.085       .  S
C542        C543   1.405       .  A
C542        H551   1.083       .  S
C543        C544   1.407       .  A
C544        H552   1.083       .  S
C553        C554   1.400       .  A
C553        C558   1.404       .  A
C553        H569   1.084       .  S
C554        C555   1.404       .  A
C554        H570   1.083       .  S
C555        C565   1.404       .  A
C555        C556   1.411       .  A
C556        C562   1.411       .  A
C556        C557   1.411       .  A
C557        C559   1.411       .  A
C557        C558   1.412       .  A
C558        C566   1.403       .  A
C559        C568   1.400       .  A
C559        C560   1.403       .  A
C560        C561   1.397       .  A
C560        H571   1.082       .  S
C561        C562   1.403       .  A
C561        H572   1.085       .  S
C562        C563   1.400       .  A
C563        C564   1.406       .  A
C563        H573   1.085       .  S
C564        C565   1.407       .  A
C565        H574   1.083       .  S
C566        C567   1.406       .  A
C566        H575   1.085       .  S
C567        C568   1.405       .  A
C568        H576   1.082       .  S
C577        C578   1.399       .  A
C577        C582   1.403       .  A
C577        H593   1.083       .  S
C578        C579   1.404       .  A
C578        H594   1.084       .  S
C579        C589   1.403       .  A
C579        C580   1.411       .  A
C580        C586   1.412       .  A
C580        C581   1.411       .  A
C581        C583   1.411       .  A
C581        C582   1.412       .  A
C582        C590   1.403       .  A
C583        C592   1.401       .  A
C583        C584   1.403       .  A
C584        C585   1.398       .  A
C584        H595   1.083       .  S
C585        C586   1.403       .  A
C585        H596   1.084       .  S
C586        C587   1.402       .  A
C587        C588   1.405       .  A
C587        H597   1.084       .  S
C588        C589   1.406       .  A
C589        H598   1.084       .  S
C590        C591   1.405       .  A
C590        H599   1.083       .  S
C591        C592   1.405       .  A
C592        H600   1.083       .  S
C601        C602   1.401   1_554  A
C601        C606   1.404       .  A
C601        H617   1.083       .  S
C602        C603   1.404       .  A
C602        H618   1.084       .  S
C603        C613   1.406       .  A
C603        C604   1.411       .  A
C604        C610   1.411       .  A
C604        C605   1.411   1_556  A
C605        C607   1.410       .  A
C605        C606   1.412       .  A
C606        C614   1.406       .  A
C607        C616   1.397       .  A
C607        C608   1.402       .  A
C608        C609   1.396   1_554  A
C608        H619   1.084       .  S
C609        C610   1.402       .  A
C609        H620   1.083       .  S
C610        C611   1.398       .  A
C611        C612   1.406       .  A
C611        H621   1.083       .  S
C612        C613   1.407       .  A
C613        H622   1.084       .  S
C614        C615   1.407       .  A
C614        H623   1.083       .  S
C615        C616   1.407       .  A
C616        H624   1.083       .  S
C625        C626   1.398       .  A
C625        C630   1.403       .  A
C625        H641   1.083       .  S
C626        C627   1.403       .  A
C626        H642   1.084       .  S
C627        C637   1.401       .  A
C627        C628   1.411       .  A
C628        C634   1.411       .  A
C628        C629   1.409       .  A
C629        C631   1.412       .  A
C629        C630   1.412       .  A
C630        C638   1.401       .  A
C631        C640   1.400       .  A
C631        C632   1.403       .  A
C632        C633   1.397       .  A
C632        H643   1.083       .  S
C633        C634   1.403       .  A
C633        H644   1.084       .  S
C634        C635   1.399       .  A
C635        C636   1.404       .  A
C635        H645   1.083       .  S
C636        C637   1.406       .  A
C637        H646   1.083       .  S
C638        C639   1.404       .  A
C638        H647   1.084       .  S
C639        C640   1.404       .  A
C640        H648   1.084       .  S
C649        C650   1.398   1_545  A
C649        C654   1.403       .  A
C649        H665   1.083       .  S
C650        C651   1.403       .  A
C650        H666   1.084       .  S
C651        C661   1.402       .  A
C651        C652   1.412       .  A
C652        C658   1.412       .  A
C652        C653   1.410   1_565  A
C653        C655   1.411       .  A
C653        C654   1.411       .  A
C654        C662   1.402       .  A
C655        C664   1.400       .  A
C655        C656   1.403       .  A
C656        C657   1.398   1_545  A
C656        H667   1.083       .  S
C657        C658   1.403       .  A
C657        H668   1.084       .  S
C658        C659   1.400       .  A
C659        C660   1.404       .  A
C659        H669   1.085       .  S
C660        C661   1.404       .  A
C661        H670   1.084       .  S
C662        C663   1.406       .  A
C662        H671   1.083       .  S
C663        C664   1.406       .  A
C664        H672   1.084       .  S
C673        C674   1.398       .  A
C673        C678   1.403       .  A
C673        H689   1.083       .  S
C674        C675   1.403       .  A
C674        H690   1.084       .  S
C675        C685   1.401       .  A
C675        C676   1.412       .  A
C676        C682   1.411       .  A
C676        C677   1.409       .  A
C677        C679   1.411       .  A
C677        C678   1.411       .  A
C678        C686   1.401       .  A
C679        C688   1.399       .  A
C679        C680   1.403       .  A
C680        C681   1.397       .  A
C680        H691   1.084       .  S
C681        C682   1.402       .  A
C681        H692   1.083       .  S
C682        C683   1.399       .  A
C683        C684   1.403       .  A
C683        H693   1.084       .  S
C684        C685   1.405       .  A
C685        H694   1.084       .  S
C686        C687   1.405       .  A
C686        H695   1.083       .  S
C687        C688   1.405       .  A
C688        H696   1.084       .  S
C697        C698   1.402   1_545  A
C697        C702   1.404       .  A
C697        H713   1.084       .  S
C698        C699   1.405       .  A
C698        H714   1.083       .  S
C699        C709   1.406       .  A
C699        C700   1.412       .  A
C700        C706   1.410       .  A
C700        C701   1.409   1_565  A
C701        C703   1.411       .  A
C701        C702   1.413       .  A
C702        C710   1.406       .  A
C703        C712   1.395       .  A
C703        C704   1.401       .  A
C704        C705   1.394   1_545  A
C704        H715   1.084       .  S
C705        C706   1.402       .  A
C705        H716   1.083       .  S
C706        C707   1.395       .  A
C707        C708   1.405       .  A
C707        H717   1.083       .  S
C708        C709   1.409       .  A
C709        H718   1.083       .  S
C710        C711   1.405       .  A
C710        H719   1.084       .  S
C711        C712   1.401       .  A
C712        H720   1.085       .  S
C721        C722   1.398       .  A
C721        C726   1.403       .  A
C721        H737   1.083       .  S
C722        C723   1.403       .  A
C722        H738   1.085       .  S
C723        C733   1.402       .  A
C723        C724   1.412       .  A
C724        C730   1.411       .  A
C724        C725   1.410       .  A
C725        C727   1.412       .  A
C725        C726   1.411       .  A
C726        C734   1.401       .  A
C727        C736   1.401       .  A
C727        C728   1.403       .  A
C728        C729   1.398       .  A
C728        H739   1.084       .  S
C729        C730   1.403       .  A
C729        H740   1.083       .  S
C730        C731   1.400       .  A
C731        C732   1.405       .  A
C731        H741   1.084       .  S
C732        C733   1.404       .  A
C733        H742   1.085       .  S
C734        C735   1.405       .  A
C734        H743   1.083       .  S
C735        C736   1.405       .  A
C736        H744   1.084       .  S
C745        C746   1.400       .  A
C745        C750   1.404   1_556  A
C745        H761   1.084   1_556  S
C746        C747   1.404       .  A
C746        H762   1.083       .  S
C747        C757   1.405       .  A
C747        C748   1.412       .  A
C748        C754   1.410       .  A
C748        C749   1.410       .  A
C749        C751   1.411   1_556  A
C749        C750   1.412   1_556  A
C750        C758   1.404       .  A
C751        C760   1.399       .  A
C751        C752   1.402       .  A
C752        C753   1.396   1_554  A
C752        H763   1.084       .  S
C753        C754   1.403       .  A
C753        H764   1.083       .  S
C754        C755   1.398       .  A
C755        C756   1.406       .  A
C755        H765   1.083       .  S
C756        C757   1.406       .  A
C757        H766   1.083       .  S
C758        C759   1.405       .  A
C758        H767   1.084       .  S
C759        C760   1.404       .  A
C760        H768   1.084       .  S
C769        C770   1.400       .  A
C769        C774   1.405       .  A
C769        H785   1.083       .  S
C770        C771   1.404       .  A
C770        H786   1.084       .  S
C771        C781   1.405       .  A
C771        C772   1.411       .  A
C772        C778   1.410       .  A
C772        C773   1.412       .  A
C773        C775   1.410       .  A
C773        C774   1.410       .  A
C774        C782   1.404       .  A
C775        C784   1.402       .  A
C775        C776   1.403       .  A
C776        C777   1.397       .  A
C776        H787   1.083       .  S
C777        C778   1.403       .  A
C777        H788   1.085       .  S
C778        C779   1.400       .  A
C779        C780   1.408       .  A
C779        H789   1.083       .  S
C780        C781   1.409       .  A
C781        H790   1.083       .  S
C782        C783   1.411       .  A
C782        H791   1.081       .  S
C783        C784   1.408       .  A
C784        H792   1.081       .  S
C793        C794   1.398       .  A
C793        C798   1.403       .  A
C793        H809   1.084       .  S
C794        C795   1.404       .  A
C794        H810   1.083       .  S
C795        C805   1.401       .  A
C795        C796   1.410       .  A
C796        C802   1.410       .  A
C796        C797   1.409       .  A
C797        C799   1.410       .  A
C797        C798   1.410       .  A
C798        C806   1.402       .  A
C799        C808   1.399       .  A
C799        C800   1.403       .  A
C800        C801   1.396       .  A
C800        H811   1.084       .  S
C801        C802   1.402       .  A
C801        H812   1.084       .  S
C802        C803   1.399       .  A
C803        C804   1.407       .  A
C803        H813   1.082       .  S
C804        C805   1.409       .  A
C805        H814   1.081       .  S
C806        C807   1.409       .  A
C806        H815   1.083       .  S
C807        C808   1.408       .  A
C808        H816   1.082       .  S
C817        C818   1.399       .  A
C817        C822   1.404       .  A
C817        H833   1.083       .  S
C818        C819   1.403       .  A
C818        H834   1.084       .  S
C819        C829   1.402       .  A
C819        C820   1.412       .  A
C820        C826   1.412       .  A
C820        C821   1.411       .  A
C821        C823   1.411       .  A
C821        C822   1.412       .  A
C822        C830   1.403       .  A
C823        C832   1.401       .  A
C823        C824   1.403       .  A
C824        C825   1.398       .  A
C824        H835   1.084       .  S
C825        C826   1.403       .  A
C825        H836   1.083       .  S
C826        C827   1.402       .  A
C827        C828   1.404       .  A
C827        H837   1.083   1_455  S
C828        C829   1.404       .  A
C829        H838   1.084       .  S
C830        C831   1.407       .  A
C830        H839   1.083       .  S
C831        C832   1.406       .  A
C832        H840   1.084       .  S
C841        C842   1.401       .  A
C841        C846   1.405       .  A
C841        H857   1.083       .  S
C842        C843   1.404       .  A
C842        H858   1.084       .  S
C843        C853   1.406       .  A
C843        C844   1.411       .  A
C844        C850   1.410       .  A
C844        C845   1.411       .  A
C845        C847   1.410       .  A
C845        C846   1.410       .  A
C846        C854   1.405       .  A
C847        C856   1.399       .  A
C847        C848   1.403       .  A
C848        C849   1.396       .  A
C848        H859   1.082       .  S
C849        C850   1.402       .  A
C849        H860   1.085       .  S
C850        C851   1.398       .  A
C851        C852   1.406       .  A
C851        H861   1.084       .  S
C852        C853   1.408       .  A
C853        H862   1.083       .  S
C854        C855   1.410       .  A
C854        H863   1.081       .  S
C855        C856   1.408       .  A
C856        H864   1.079       .  S
C865        C866   1.398       .  A
C865        C870   1.403       .  A
C865        H881   1.083       .  S
C866        C867   1.403       .  A
C866        H882   1.084       .  S
C867        C877   1.402       .  A
C867        C868   1.411       .  A
C868        C874   1.411       .  A
C868        C869   1.413       .  A
C869        C871   1.412       .  A
C869        C870   1.411       .  A
C870        C878   1.403       .  A
C871        C880   1.406       .  A
C871        C872   1.404       .  A
C872        C873   1.401       .  A
C872        H883   1.084       .  S
C873        C874   1.404       .  A
C873        H884   1.083       .  S
C874        C875   1.406       .  A
C875        C876   1.409       .  A
C875        H885   1.083       .  S
C876        C877   1.407       .  A
C877        H886   1.084       .  S
C878        C879   1.407       .  A
C878        H887   1.083       .  S
C879        C880   1.408       .  A
C880        H888   1.084       .  S
C889        C890   1.399       .  A
C889        C894   1.403       .  A
C889        H905   1.084       .  S
C890        C891   1.403       .  A
C890        H906   1.083       .  S
C891        C901   1.402       .  A
C891        C892   1.411       .  A
C892        C898   1.411       .  A
C892        C893   1.413       .  A
C893        C895   1.411       .  A
C893        C894   1.411       .  A
C894        C902   1.402       .  A
C895        C904   1.405       .  A
C895        C896   1.404       .  A
C896        C897   1.400       .  A
C896        H907   1.084       .  S
C897        C898   1.404       .  A
C897        H908   1.083       .  S
C898        C899   1.405       .  A
C899        C900   1.409       .  A
C899        H909   1.082       .  S
C900        C901   1.408       .  A
C901        H910   1.083       .  S
C902        C903   1.408       .  A
C902        H911   1.084       .  S
C903        C904   1.408       .  A
C904        H912   1.084       .  S
C913        C914   1.400       .  A
C913        C918   1.404       .  A
C913        H929   1.083       .  S
C914        C915   1.404       .  A
C914        H930   1.084       .  S
C915        C925   1.406       .  A
C915        C916   1.412       .  A
C916        C922   1.411       .  A
C916        C917   1.412       .  A
C917        C919   1.411       .  A
C917        C918   1.411       .  A
C918        C926   1.404       .  A
C919        C928   1.401       .  A
C919        C920   1.403       .  A
C920        C921   1.397       .  A
C920        H931   1.084       .  S
C921        C922   1.403       .  A
C921        H932   1.084       .  S
C922        C923   1.401       .  A
C923        C924   1.407       .  A
C923        H933   1.083       .  S
C924        C925   1.408       .  A
C925        H934   1.084       .  S
C926        C927   1.408       .  A
C926        H935   1.083       .  S
C927        C928   1.405       .  A
C928        H936   1.083       .  S
C937        C938   1.400       .  A
C937        C942   1.404   1_556  A
C937        H953   1.083       .  S
C938        C939   1.404       .  A
C938        H954   1.083       .  S
C939        C949   1.405       .  A
C939        C940   1.412       .  A
C940        C946   1.412       .  A
C940        C941   1.413   1_556  A
C941        C943   1.411       .  A
C941        C942   1.411       .  A
C942        C950   1.404       .  A
C943        C952   1.404       .  A
C943        C944   1.404       .  A
C944        C945   1.399   1_554  A
C944        H955   1.083       .  S
C945        C946   1.403       .  A
C945        H956   1.084       .  S
C946        C947   1.404       .  A
C947        C948   1.403       .  A
C947        H957   1.085   1_455  S
C948        C949   1.404       .  A
C949        H958   1.084       .  S
C950        C951   1.409       .  A
C950        H959   1.083       .  S
C951        C952   1.407       .  A
C952        H960   1.083       .  S
