geometry optimzed in LAMMPS
_audit_creation_date              2020-11-30 
_audit_creation_method            'lammps2cif' 
_symmetry_space_group_name_H-M    'P1' 
_symmetry_Int_Tables_number       1 
_symmetry_cell_setting            triclinic 
loop_ 
_symmetry_equiv_pos_as_xyz 
  x,y,z 
_cell_length_a                    36.65017937 
_cell_length_b                    36.76756685119935 
_cell_length_c                    37.065779845233884 
_cell_angle_alpha                 90.70329561048088 
_cell_angle_beta                  91.1122408076901 
_cell_angle_gamma                 90.26071003698183 
loop_ 
_atom_site_label 
_atom_site_type_symbol 
_atom_site_fract_x 
_atom_site_fract_y 
_atom_site_fract_z 
_atom_site_charge 
C1          C  0.86947224  0.37570408  0.20594015     0.30900
C2          C  0.86732155  0.37583564  0.03491867     0.30900
C3          C  0.89248857  0.40527494  0.22640946    -0.05300
C4          C  0.83316906  0.37513056  0.22539697    -0.06100
C5          C  0.88822264  0.34202124  0.22547953    -0.06000
C6          C  0.89088300  0.40449301  0.01563031    -0.05300
C7          C  0.83093988  0.37552487  0.01390081    -0.06100
C8          C  0.88500077  0.34177018  0.01568128    -0.06000
C9          C  0.92662334  0.41314267  0.02610305    -0.31400
N10         N  0.94845407  0.42229871  0.24713626     0.15100
C11         C  0.92827537  0.41411507  0.21765569    -0.31400
H12         H  0.94073073  0.41055037  0.19174773     0.17100
C13         C  0.80039112  0.35603111  0.02310510    -0.30300
N14         N  0.78022978  0.34724861  0.99354415     0.13900
C15         C  0.80235654  0.35596258  0.21452497    -0.30300
C16         C  0.90345710  0.31134666  0.02707446    -0.30600
N17         N  0.91314482  0.29073642  0.99831623     0.14400
H18         H  0.90867804  0.30383442  0.05437173     0.17000
C19         C  0.90706478  0.31073033  0.21559711    -0.30600
H20         H  0.91111759  0.30072904  0.18850072     0.17000
H21         H  0.79421322  0.34882913  0.18717298     0.17000
H22         H  0.93902736  0.40944263  0.05238504     0.17100
H23         H  0.79248269  0.34915392  0.05009640     0.17000
C24         C  0.86272558  0.38076381  0.08130694     0.30900
C25         C  0.86361072  0.38067075  0.15990506     0.30900
C26         C  0.89006416  0.40656354  0.10179524    -0.05300
C27         C  0.82749320  0.39515170  0.10096219    -0.06100
C28         C  0.86622466  0.34462962  0.10110339    -0.06000
C29         C  0.89040658  0.40652131  0.14066614    -0.05300
C30         C  0.82764542  0.39509330  0.14001600    -0.06100
C31         C  0.86711783  0.34456161  0.13952354    -0.06000
C32         C  0.89732335  0.44257046  0.15077293    -0.31400
N33         N  0.90549964  0.46288737  0.12228804     0.15100
C34         C  0.89716563  0.44266028  0.09289510    -0.31400
H35         H  0.89317836  0.45493671  0.06686087     0.17100
C36         C  0.79391456  0.40911174  0.14977674    -0.30300
N37         N  0.77359060  0.41643585  0.11961936     0.13900
C38         C  0.79421827  0.40932806  0.09035609    -0.30300
C39         C  0.85190222  0.31185605  0.14930261    -0.30600
N40         N  0.84419028  0.29149478  0.11985473     0.14400
H41         H  0.84639516  0.30301856  0.17634790     0.17000
C42         C  0.84962233  0.31236324  0.09093577    -0.30600
H43         H  0.84253391  0.30389737  0.06375289     0.17000
H44         H  0.78477226  0.41295836  0.06315090     0.17000
H45         H  0.89321083  0.45483259  0.17692705     0.17100
H46         H  0.78401096  0.41262987  0.17679517     0.17000
C47         C  0.38286781  0.01690952  0.03871242     0.30900
C48         C  0.38166468  0.01664715  0.20972077     0.30900
C49         C  0.42043699  0.01043310  0.02005135    -0.05300
C50         C  0.35947841  0.98818478  0.01720824    -0.06100
C51         C  0.37088127  0.05244092  0.01881678    -0.06000
C52         C  0.41869787  0.01055779  0.23034652    -0.05300
C53         C  0.35804779  0.98773579  0.22867781    -0.06100
C54         C  0.36883618  0.05177718  0.22990114    -0.06000
C55         C  0.44990411  0.99238982  0.22038661    -0.31400
N56         N  0.46827652  0.98070154  0.25030127     0.15100
C57         C  0.45147529  0.99182645  0.03095477    -0.31400
H58         H  0.45781145  0.98416910  0.05835303     0.17100
C59         C  0.32558503  0.97224045  0.21699588    -0.30300
N60         N  0.30461776  0.96517678  0.24562254     0.13900
C61         C  0.32706917  0.97172797  0.02572969    -0.30300
C62         C  0.36153072  0.08692185  0.21938153    -0.30600
N63         N  0.35896730  0.10923915  0.24889504     0.14400
H64         H  0.36046416  0.09600243  0.19185829     0.17000
C65         C  0.36347672  0.08806817  0.02935589    -0.30600
H66         H  0.36190217  0.09789060  0.05666076     0.17000
H67         H  0.31592343  0.97106751  0.05236288     0.17000
H68         H  0.45659142  0.98508801  0.19304364     0.17100
H69         H  0.31545907  0.97134334  0.18948424     0.17000
C70         C  0.38080546  0.01616691  0.16351993     0.30900
C71         C  0.38104347  0.01623612  0.08487533     0.30900
C72         C  0.39047258  0.98000679  0.14314005    -0.05300
C73         C  0.34426174  0.02556865  0.14275196    -0.06100
C74         C  0.40751246  0.04254426  0.14459670    -0.06000
C75         C  0.39054940  0.98008553  0.10457974    -0.05300
C76         C  0.34418090  0.02543272  0.10423525    -0.06100
C77         C  0.40770765  0.04242048  0.10596802    -0.06000
C78         C  0.40614880  0.94763537  0.09384773    -0.31400
N79         N  0.41672917  0.92852487  0.12350929     0.15100
C80         C  0.40618277  0.94749325  0.15340221    -0.31400
H81         H  0.41199936  0.93970391  0.18089486     0.17100
C82         C  0.30778567  0.02997137  0.09341421    -0.30300
N83         N  0.28580337  0.03199746  0.12278352     0.13900
C84         C  0.30823454  0.03057597  0.15262693    -0.30300
C85         C  0.42165355  0.07568675  0.09643478    -0.30600
N86         N  0.42813114  0.09662775  0.12627651     0.14400
H87         H  0.42228800  0.08563173  0.06934419     0.17000
C88         C  0.42112666  0.07612453  0.15550251    -0.30600
H89         H  0.42126352  0.08686124  0.18270185     0.17000
H90         H  0.29881836  0.03118099  0.17997462     0.17000
H91         H  0.41188785  0.93995579  0.06634190     0.17100
H92         H  0.29786414  0.03028557  0.06592441     0.17000
C93         C  0.53060912  0.86378668  0.03985720     0.30900
C94         C  0.52844702  0.86438989  0.21059830     0.30900
C95         C  0.52317709  0.90057925  0.02034947    -0.05300
C96         C  0.56672930  0.85263810  0.02063601    -0.06100
C97         C  0.50287816  0.83913161  0.01853339    -0.06000
C98         C  0.52084531  0.90093146  0.23093598    -0.05300
C99         C  0.56423203  0.85298050  0.23097312    -0.06100
C100        C  0.50040274  0.83954796  0.22994936    -0.06000
C101        C  0.50490374  0.93322472  0.22058518    -0.31400
N102        N  0.49451073  0.95229329  0.25041066     0.15100
C103        C  0.50698770  0.93270449  0.03114857    -0.31400
H104        H  0.50031820  0.93974035  0.05858796     0.17100
C105        C  0.60042635  0.85061513  0.22112935    -0.30300
N106        N  0.62213843  0.84941288  0.25128851     0.13900
C107        C  0.60283430  0.84993871  0.03202848    -0.30300
C108        C  0.48266956  0.80822475  0.21870216    -0.30600
N109        N  0.47284592  0.78838173  0.24764016     0.14400
H110        H  0.48200003  0.79796747  0.19143838     0.17000
C111        C  0.48413970  0.80796288  0.02770715    -0.30600
H112        H  0.48293507  0.79675480  0.05448709     0.17000
H113        H  0.61239283  0.85222039  0.05949243     0.17000
H114        H  0.49841481  0.94054113  0.19309786     0.17100
H115        H  0.61058227  0.85297957  0.19405595     0.17000
C116        C  0.52831710  0.86397298  0.16443360     0.30900
C117        C  0.52919110  0.86322294  0.08595261     0.30900
C118        C  0.49116457  0.86831073  0.14360670    -0.05300
C119        C  0.55080255  0.89366621  0.14531576    -0.06100
C120        C  0.54346706  0.82966755  0.14480699    -0.06000
C121        C  0.49149902  0.86823877  0.10479529    -0.05300
C122        C  0.55146187  0.89322136  0.10663536    -0.06100
C123        C  0.54354488  0.82883090  0.10628252    -0.06000
C124        C  0.46081801  0.88758649  0.09409626    -0.31400
N125        N  0.44246287  0.89961072  0.12352549     0.15100
C126        C  0.46038901  0.88735636  0.15340764    -0.31400
H127        H  0.45403260  0.89513787  0.18071378     0.17100
C128        C  0.58274473  0.91152224  0.09746114    -0.30300
N129        N  0.60074725  0.92260121  0.12792683     0.13900
C130        C  0.58146687  0.91227143  0.15682007    -0.30300
C131        C  0.54763076  0.79246014  0.09658214    -0.30600
N132        N  0.55047005  0.77178417  0.12680176     0.14400
H133        H  0.54414698  0.78132222  0.06961593     0.17000
C134        C  0.54859645  0.79447097  0.15588589    -0.30600
H135        H  0.54567014  0.78533848  0.18312242     0.17000
H136        H  0.59141467  0.91387721  0.18421687     0.17000
H137        H  0.45471274  0.89557487  0.06674007     0.17100
H138        H  0.59393488  0.91302522  0.07075175     0.17000
C139        C  0.01979788  0.52949043  0.21095486     0.30900
C140        C  0.01842607  0.52933036  0.03961438     0.30900
C141        C  0.99166767  0.50516044  0.22994946    -0.05300
C142        C  0.05437209  0.51327399  0.23113571    -0.06100
C143        C  0.01831666  0.56590768  0.23150087    -0.06000
C144        C  0.98997970  0.50473294  0.01911182    -0.05300
C145        C  0.05301589  0.51298567  0.02004954    -0.06100
C146        C  0.01613176  0.56569522  0.01996588    -0.06000
C147        C  0.98239715  0.46875996  0.02799323    -0.31400
N148        N  0.97413587  0.44859062  0.99862040     0.15100
C149        C  0.98435895  0.46926907  0.21978455    -0.31400
H150        H  0.98875395  0.45691562  0.19371858     0.17100
C151        C  0.08457680  0.49433172  0.03004518    -0.30300
N152        N  0.10285059  0.48385792  0.00001942     0.13900
C153        C  0.08559543  0.49557052  0.22084771    -0.30300
C154        C  0.03284051  0.59794148  0.03051819    -0.30600
N155        N  0.04033077  0.61777481  0.00142581     0.14400
H156        H  0.04054267  0.60627190  0.05766976     0.17000
C157        C  0.03661927  0.59719940  0.22246101    -0.30600
H158        H  0.04400686  0.60503063  0.19565566     0.17000
H159        H  0.09385839  0.49051991  0.19373440     0.17000
H160        H  0.98651899  0.45634483  0.05393946     0.17100
H161        H  0.09442858  0.48951999  0.05719495     0.17000
C162        C  0.01416776  0.53400253  0.08584700     0.30900
C163        C  0.01488617  0.53352489  0.16449632     0.30900
C164        C  0.98940053  0.50598705  0.10489904    -0.05300
C165        C  0.05084368  0.53151744  0.10619306    -0.06100
C166        C  0.99861267  0.56879699  0.10617582    -0.06000
C167        C  0.98973153  0.50568799  0.14383686    -0.05300
C168        C  0.05113316  0.53162400  0.14468542    -0.06100
C169        C  0.99899553  0.56812992  0.14519051    -0.06000
C170        C  0.95371973  0.49772613  0.15269864    -0.31400
N171        N  0.93327344  0.48972078  0.12326772     0.15100
C172        C  0.95329168  0.49832256  0.09476021    -0.31400
H173        H  0.94070613  0.50240369  0.06861177     0.17100
C174        C  0.08303712  0.54907327  0.15508743    -0.30300
N175        N  0.10342327  0.55609706  0.12618689     0.13900
C176        C  0.08300698  0.54820091  0.09662597    -0.30300
C177        C  0.98263591  0.59973075  0.15641386    -0.30600
N178        N  0.97421461  0.62052601  0.12756908     0.14400
H179        H  0.97803564  0.60785501  0.18371023     0.17000
C180        C  0.98226052  0.60160496  0.09700303    -0.30600
H181        H  0.97718775  0.61176852  0.07017440     0.17000
H182        H  0.09129596  0.55473802  0.06964006     0.17000
H183        H  0.94146433  0.50126054  0.17869337     0.17100
H184        H  0.09159950  0.55578470  0.18238360     0.17000
O185        O  0.91146927  0.94035894  0.04277378    -0.70900
O186        O  0.01549260  0.95308387  0.04030344    -0.71100
O187        O  0.95845590  0.99943594  0.03836080    -0.71000
O188        O  0.96984421  0.89665193  0.04226175    -0.71000
O189        O  0.97379452  0.89537033  0.23381017    -0.70900
O190        O  0.94448872  0.99428213  0.23063753    -0.71000
O191        O  0.00923210  0.95849608  0.23193025    -0.70900
O192        O  0.90831683  0.92903426  0.23419067    -0.71100
V193        V  0.96344411  0.94763633  0.04003756     1.35200
V194        V  0.95871667  0.94447468  0.23354355     1.35200
C195        C  0.89102166  0.92930507  0.26359077     0.78300
C196        C  0.02882325  0.95842811  0.26054816     0.78400
C197        C  0.95108283  0.01468430  0.00860561     0.78300
C198        C  0.97909663  0.87996863  0.01394062     0.78200
O199        O  0.88898232  0.96929327  0.11018903    -0.70900
O200        O  0.99394113  0.96538116  0.10659865    -0.71100
O201        O  0.93819232  0.91452877  0.10981738    -0.71000
O202        O  0.94308708  0.01720288  0.10512034    -0.71000
O203        O  0.94114667  0.02210472  0.16315712    -0.70900
O204        O  0.94584831  0.91729947  0.16775939    -0.71000
O205        O  0.99642363  0.97312086  0.16440848    -0.70900
O206        O  0.89289574  0.96854253  0.16853337    -0.71100
V207        V  0.94130541  0.96639653  0.10904881     1.35200
V208        V  0.94435388  0.96992283  0.16494570     1.35200
C209        C  0.87320692  0.97017726  0.14034814     0.78300
C210        C  0.01310090  0.97130596  0.13501399     0.78400
C211        C  0.94096868  0.89794138  0.13933614     0.78300
C212        C  0.93888409  0.03696634  0.13253500     0.78200
O213        O  0.49889436  0.42609663  0.02366312    -0.70900
O214        O  0.39961787  0.45803335  0.01950181    -0.71100
O215        O  0.43247902  0.39320830  0.01855877    -0.71000
O216        O  0.46517531  0.49284665  0.02288641    -0.71000
O217        O  0.45645740  0.49187806  0.21416113    -0.70900
O218        O  0.44830430  0.38857469  0.21083787    -0.71000
O219        O  0.40062569  0.44416389  0.21177110    -0.70900
O220        O  0.50525042  0.43554756  0.21462397    -0.71100
V221        V  0.44940396  0.44260026  0.02033983     1.35200
V222        V  0.45285581  0.44028420  0.21373270     1.35200
C223        C  0.52121236  0.42629575  0.24374291     0.78300
C224        C  0.38324082  0.45084627  0.24034173     0.78400
C225        C  0.43367437  0.37505722  0.98929298     0.78300
C226        C  0.46401048  0.51119532  0.99411509     0.78200
O227        O  0.41513284  0.39365949  0.08751023    -0.70900
O228        O  0.43648767  0.49711552  0.08903292    -0.71100
O229        O  0.47642789  0.43621619  0.08875615    -0.71000
O230        O  0.37471897  0.45557740  0.08836245    -0.71000
O231        O  0.37713339  0.45989334  0.14663639    -0.70900
O232        O  0.47647235  0.43103611  0.14673140    -0.71000
O233        O  0.44121377  0.49478494  0.14697687    -0.70900
O234        O  0.41188321  0.39391926  0.14553704    -0.71100
V235        V  0.42548972  0.44533749  0.08943075     1.35200
V236        V  0.42639793  0.44469950  0.14537112     1.35200
C237        C  0.41009808  0.37581672  0.11615354     0.78300
C238        C  0.44506803  0.51310613  0.11854728     0.78400
C239        C  0.49415547  0.43176287  0.11789485     0.78300
C240        C  0.35953503  0.46396682  0.11753054     0.78200
C241        C  0.18953775  0.50639911  0.14046191    -0.04600
C242        C  0.21637135  0.53063568  0.12742378     0.09600
C243        C  0.20456291  0.56597570  0.11633991    -0.02000
C244        C  0.16738368  0.57563735  0.11914462    -0.00200
C245        C  0.14158911  0.54888654  0.12701877    -0.03800
C246        C  0.15282827  0.51354649  0.13466476     0.03200
C247        C  0.25436111  0.51598500  0.12153314     0.10000
C248        C  0.22880211  0.59202742  0.10011138     0.35900
C249        C  0.12682622  0.48350766  0.13310792     0.39300
C250        C  0.25846782  0.48157835  0.10381523    -0.04200
C251        C  0.29241267  0.46398767  0.10343290     0.03000
C252        C  0.32346196  0.48162719  0.11775495    -0.03800
C253        C  0.32064741  0.51775677  0.13060503     0.00000
C254        C  0.28635721  0.53437814  0.13407146    -0.02600
C255        C  0.22745026  0.46357657  0.08640905     0.36700
C256        C  0.35324974  0.53952745  0.13671031     0.40300
C257        C  0.29495586  0.42758636  0.08847155     0.39400
C258        C  0.28530548  0.57037281  0.15040067     0.36300
C259        C  0.19805389  0.47164161  0.15603692     0.37000
C260        C  0.15525151  0.61248437  0.11293843     0.40300
N261        N  0.29567468  0.39847642  0.07643090    -0.37800
N262        N  0.20157680  0.44883563  0.07540164    -0.39400
N263        N  0.37845227  0.55826726  0.14055532    -0.37100
N264        N  0.28580289  0.59926978  0.16319978    -0.39500
N265        N  0.24738740  0.61349297  0.08698006    -0.39300
N266        N  0.14561382  0.64207596  0.10871758    -0.36900
N267        N  0.10663274  0.45922369  0.13122433    -0.38000
N268        N  0.20090980  0.44242001  0.16656516    -0.39600
C269        C  0.92173937  0.79545314  0.15105123    -0.04600
C270        C  0.95450184  0.77878707  0.13877107     0.09600
C271        C  0.98170061  0.80308847  0.12548552    -0.02000
C272        C  0.97678084  0.84127619  0.12725211    -0.00200
C273        C  0.94433696  0.85686411  0.13930580    -0.03800
C274        C  0.91509057  0.83278125  0.14519071     0.03200
C275        C  0.95880658  0.73694755  0.13685253     0.10000
C276        C  0.01439639  0.79024275  0.10817390     0.35900
C277        C  0.87898026  0.84190939  0.13185945     0.39300
C278        C  0.92968938  0.71334197  0.12437115    -0.04200
C279        C  0.93448125  0.67496646  0.12240622     0.03000
C280        C  0.96860633  0.65943259  0.13006407    -0.03800
C281        C  0.99772220  0.68212505  0.14102050     0.00000
C282        C  0.99255360  0.71983026  0.14628364    -0.02600
C283        C  0.89659066  0.72798746  0.10808922     0.36700
C284        C  0.03379035  0.66653565  0.14596496     0.40300
C285        C  0.90462736  0.65117878  0.11125387     0.39400
C286        C  0.02247876  0.73983659  0.16294137     0.36300
C287        C  0.89371464  0.77531647  0.16944495     0.37000
C288        C  0.00176097  0.86513227  0.10980228     0.40300
N289        N  0.88087522  0.63200261  0.10244740    -0.37800
N290        N  0.87039617  0.73928483  0.09442852    -0.39400
N291        N  0.06279931  0.65461958  0.14944133    -0.37100
N292        N  0.04782050  0.75477041  0.17480667    -0.39500
N293        N  0.04125771  0.78106178  0.09499625    -0.39300
N294        N  0.01863707  0.88642598  0.09481860    -0.36900
N295        N  0.85031980  0.84749432  0.11947991    -0.38000
N296        N  0.87079660  0.75986658  0.18401581    -0.39600
C297        C  0.28078675  0.43339764  0.22024515    -0.04600
C298        C  0.26337388  0.46087966  0.24128301     0.09600
C299        C  0.28430015  0.49057735  0.00935157    -0.02000
C300        C  0.32267604  0.48642968  0.01073829    -0.00200
C301        C  0.34207084  0.45478059  0.24010530    -0.03800
C302        C  0.31946113  0.43122995  0.21939337     0.03200
C303        C  0.22169589  0.46599170  0.24196281     0.10000
C304        C  0.26898596  0.51964664  0.03049710     0.35900
C305        C  0.33653571  0.40211209  0.20007338     0.39300
C306        C  0.19715267  0.44041477  0.99855687    -0.04200
C307        C  0.15855393  0.44435931  0.00208272     0.03000
C308        C  0.14474533  0.47917596  0.24905170    -0.03800
C309        C  0.16860845  0.50741120  0.24002769     0.00000
C310        C  0.20600758  0.50066333  0.23473939    -0.02600
C311        C  0.21354868  0.40558712  0.00676348     0.36700
C312        C  0.15443165  0.54407229  0.23688240     0.40300
C313        C  0.13584049  0.41342806  0.01049128     0.39400
C314        C  0.22772825  0.53018541  0.22129861     0.36300
C315        C  0.26023864  0.40620173  0.19976358     0.37000
C316        C  0.34374505  0.50827474  0.03581085     0.40300
N317        N  0.11766099  0.38872676  0.01731416    -0.37800
N318        N  0.22643955  0.37773661  0.01348943    -0.39400
N319        N  0.14328241  0.57337990  0.23477437    -0.37100
N320        N  0.24424172  0.55523551  0.21252426    -0.39500
N321        N  0.25738723  0.54426472  0.04598519    -0.39300
N322        N  0.36005164  0.52512398  0.05695827    -0.36900
N323        N  0.35218713  0.37862489  0.18679076    -0.38000
N324        N  0.24542986  0.38318061  0.18358912    -0.39600
C325        C  0.04064196  0.80004749  0.24926919    -0.04600
C326        C  0.02098874  0.77151168  0.01218677     0.09600
C327        C  0.98848385  0.77977094  0.03065248    -0.02000
C328        C  0.97498116  0.81522617  0.03181662    -0.00200
C329        C  0.99417735  0.84312987  0.01512073    -0.03800
C330        C  0.02592395  0.83532203  0.24981788     0.03200
C331        C  0.02983413  0.73236385  0.00490826     0.10000
C332        C  0.96775463  0.75074438  0.04640906     0.35900
C333        C  0.04734342  0.86496188  0.23613288     0.39300
C334        C  0.06244079  0.71606192  0.01806498    -0.04200
C335        C  0.06732726  0.67821705  0.01386793     0.03000
C336        C  0.03809446  0.65643580  0.00145790    -0.03800
C337        C  0.00714982  0.67085423  0.24284115     0.00000
C338        C  0.00346286  0.70822622  0.23975011    -0.02600
C339        C  0.08968273  0.73709518  0.03811826     0.36700
C340        C  0.97467382  0.64803429  0.24175751     0.40300
C341        C  0.10165619  0.66130017  0.02337416     0.39400
C342        C  0.96931746  0.72169847  0.22489322     0.36300
C343        C  0.07676029  0.79462772  0.23480919     0.37000
C344        C  0.94016311  0.82233164  0.04815688     0.40300
N345        N  0.12927299  0.64775626  0.03037335    -0.37800
N346        N  0.11164087  0.75360143  0.05420881    -0.39400
N347        N  0.94847551  0.63034871  0.24214051    -0.37100
N348        N  0.94093495  0.73139930  0.21514160    -0.39500
N349        N  0.95185350  0.72508975  0.05451196    -0.39300
N350        N  0.91200735  0.82776005  0.06057514    -0.36900
N351        N  0.06556738  0.88817206  0.22587511    -0.38000
N352        N  0.10571974  0.79095632  0.22340576    -0.39600
C353        C  0.49124970  0.68999409  0.14117920    -0.04600
C354        C  0.51479606  0.65988271  0.13449882     0.09600
C355        C  0.55185557  0.66820179  0.12649514    -0.02000
C356        C  0.56421510  0.70506413  0.12537980    -0.00200
C357        C  0.53929102  0.73396003  0.12852224    -0.03800
C358        C  0.50265246  0.72594224  0.13494873     0.03200
C359        C  0.49862221  0.62130894  0.12994860     0.10000
C360        C  0.57709490  0.63939657  0.11761536     0.35900
C361        C  0.47588752  0.75486348  0.13232512     0.39300
C362        C  0.46977402  0.61542115  0.10457288    -0.04200
C363        C  0.45233044  0.58106876  0.09986427     0.03000
C364        C  0.46300821  0.55082375  0.12090640    -0.03800
C365        C  0.49341800  0.55617058  0.14470570     0.00000
C366        C  0.51102332  0.59052087  0.14935094    -0.02600
C367        C  0.45746464  0.64593109  0.08350554     0.36700
C368        C  0.50887011  0.52484733  0.16210170     0.40300
C369        C  0.42291617  0.57918157  0.07365935     0.39400
C370        C  0.54280719  0.59244415  0.17306145     0.36300
C371        C  0.45378982  0.68523799  0.15161910     0.37000
C372        C  0.60234146  0.71347392  0.12018452     0.40300
N373        N  0.40026832  0.58335442  0.05203429    -0.39800
N374        N  0.44859275  0.67247317  0.06969396    -0.39400
N375        N  0.52012580  0.49858825  0.17467724    -0.37100
N376        N  0.56876153  0.59137838  0.19131049    -0.39500
N377        N  0.59733461  0.61656233  0.11012366    -0.39300
N378        N  0.63287000  0.72025827  0.11630837    -0.36900
N379        N  0.45434246  0.77760150  0.12932256    -0.38000
N380        N  0.42312707  0.68522810  0.15814329    -0.39600
C381        C  0.77911029  0.93032954  0.15483427    -0.04600
C382        C  0.75548684  0.95653097  0.13876242     0.09600
C383        C  0.77154820  0.99009129  0.12813716    -0.02000
C384        C  0.80918386  0.99663888  0.13423848    -0.00200
C385        C  0.83256598  0.96793428  0.14304768    -0.03800
C386        C  0.81700508  0.93601559  0.15572814     0.03200
C387        C  0.71465327  0.94892225  0.13418583     0.10000
C388        C  0.75092551  0.01718079  0.10836579     0.35900
C389        C  0.84110975  0.91007415  0.17143745     0.39300
C390        C  0.68787807  0.97443205  0.14584059    -0.04200
C391        C  0.65028882  0.96648540  0.14131591     0.03000
C392        C  0.63885939  0.93180027  0.12969378    -0.03800
C393        C  0.66489719  0.90533650  0.12140528     0.00000
C394        C  0.70192431  0.91485413  0.11983453    -0.02600
C395        C  0.69809308  0.00795451  0.16451645     0.36700
C396        C  0.65410156  0.86739552  0.11842882     0.40300
C397        C  0.62296534  0.99352902  0.14955295     0.39400
C398        C  0.72649250  0.88856888  0.10417513     0.36300
C399        C  0.76537529  0.89662978  0.16924357     0.37000
C400        C  0.82235122  0.03347382  0.13751561     0.40300
N401        N  0.60099797  0.01507967  0.15584107    -0.37800
N402        N  0.70588053  0.03473054  0.17957903    -0.39400
N403        N  0.64629382  0.83685082  0.11746340    -0.37100
N404        N  0.74669529  0.86708754  0.09356879    -0.39500
N405        N  0.73495495  0.03895287  0.09230929    -0.39300
N406        N  0.83140376  0.06309179  0.14342829    -0.36900
N407        N  0.86374476  0.89215223  0.18337306    -0.38000
N408        N  0.75400692  0.86895304  0.17850539    -0.39600
C409        C  0.49347264  0.61140497  0.00751954    -0.04600
C410        C  0.46467985  0.63069468  0.98960331     0.09600
C411        C  0.43328762  0.60717884  0.22343940    -0.02000
C412        C  0.43251891  0.56889885  0.22831473    -0.00200
C413        C  0.46512973  0.55213180  0.99368341    -0.03800
C414        C  0.49534429  0.57287922  0.00594427     0.03200
C415        C  0.46488999  0.67267406  0.98839829     0.10000
C416        C  0.40393701  0.62231308  0.20179828     0.35900
C417        C  0.52991452  0.55553482  0.01326519     0.39300
C418        C  0.49633214  0.69039018  0.23234065    -0.04200
C419        C  0.49962147  0.72797655  0.23951397     0.03000
C420        C  0.46970787  0.75052605  0.99539464    -0.03800
C421        C  0.43591095  0.73291203  0.99896263     0.00000
C422        C  0.43359175  0.69420963  0.99737326    -0.02600
C423        C  0.52884180  0.67309129  0.21912912     0.36700
C424        C  0.40400742  0.75472370  0.00620944     0.40300
C425        C  0.53548747  0.74493699  0.24246770     0.39400
C426        C  0.39998955  0.67743805  0.00913970     0.36300
C427        C  0.52133318  0.63058882  0.02854183     0.37000
C428        C  0.39933575  0.54870911  0.22004056     0.40300
N429        N  0.56415817  0.75806395  0.24560155    -0.37800
N430        N  0.55711486  0.66289847  0.21032616    -0.39400
N431        N  0.37850425  0.77214070  0.01199428    -0.37100
N432        N  0.37326046  0.66453439  0.01929250    -0.39500
N433        N  0.37895143  0.63207849  0.18501348    -0.39300
N434        N  0.37246791  0.53298665  0.21414694    -0.36900
N435        N  0.55850178  0.54320286  0.01831656    -0.38000
N436        N  0.54398011  0.64624005  0.04445013    -0.39600
C437        C  0.80785330  0.86501896  0.25125651    -0.04600
C438        C  0.77805114  0.88641859  0.26326195     0.09600
C439        C  0.79100774  0.91476174  0.03359023    -0.02000
C440        C  0.82729098  0.92835015  0.03596176    -0.00200
C441        C  0.85230942  0.91435180  0.26562597    -0.03800
C442        C  0.84453394  0.87763129  0.25569213     0.03200
C443        C  0.73767468  0.87471328  0.25764567     0.10000
C444        C  0.76208971  0.93687738  0.04830833     0.35900
C445        C  0.87394607  0.85380440  0.24503029     0.39300
C446        C  0.72743149  0.83735119  0.01918036    -0.04200
C447        C  0.68926762  0.82952254  0.01673604     0.03000
C448        C  0.66102543  0.85717256  0.25251026    -0.03800
C449        C  0.67383963  0.89167997  0.24279317     0.00000
C450        C  0.71158127  0.89940580  0.24265028    -0.02600
C451        C  0.75146555  0.81098796  0.03590144     0.36700
C452        C  0.64797723  0.92080408  0.23681053     0.40300
C453        C  0.67531435  0.79475999  0.02830484     0.39400
C454        C  0.72298191  0.93383100  0.22791192     0.36300
C455        C  0.80142279  0.83141232  0.23119416     0.37000
C456        C  0.83186608  0.96443080  0.05057393     0.40300
N457        N  0.66408787  0.76703049  0.03765122    -0.37800
N458        N  0.77055122  0.78997717  0.04947384    -0.39400
N459        N  0.62803161  0.94488522  0.23344466    -0.37100
N460        N  0.73278141  0.96198422  0.21838681    -0.39500
N461        N  0.73838540  0.95542803  0.05706722    -0.39300
N462        N  0.83010255  0.99408770  0.06070177    -0.36900
N463        N  0.89646012  0.83507840  0.23386454    -0.38000
N464        N  0.79676377  0.80474340  0.21479177    -0.39600
C465        C  0.43250677  0.27415613  0.09959979    -0.04600
C466        C  0.40849851  0.25525051  0.12265523     0.09600
C467        C  0.38024554  0.27681684  0.13825883    -0.02000
C468        C  0.37760947  0.31492108  0.13134578    -0.00200
C469        C  0.40655373  0.33414262  0.11557719    -0.03800
C470        C  0.43231953  0.31264260  0.09760318     0.03200
C471        C  0.41214783  0.21338364  0.12628919     0.10000
C472        C  0.35080399  0.26040342  0.15765787     0.35900
C473        C  0.45597771  0.32982747  0.07294700     0.39300
C474        C  0.44765049  0.19773157  0.13197295    -0.04200
C475        C  0.45324294  0.15954056  0.12927215     0.03000
C476        C  0.42336275  0.13568378  0.12643898    -0.03800
C477        C  0.38805379  0.15014127  0.12380690     0.00000
C478        C  0.38229168  0.18806455  0.12159633    -0.02600
C479        C  0.47864843  0.22040311  0.14263347     0.36700
C480        C  0.35698242  0.12557325  0.12243210     0.40300
C481        C  0.48960865  0.14434543  0.13119875     0.39400
C482        C  0.34513729  0.19850494  0.11281898     0.36300
C483        C  0.45652183  0.25403927  0.07600503     0.37000
C484        C  0.34168053  0.33097943  0.13043903     0.40300
N485        N  0.51856874  0.13196530  0.13253495    -0.37800
N486        N  0.50367377  0.23830836  0.15055255    -0.39400
N487        N  0.33119122  0.10735965  0.12142555    -0.37100
N488        N  0.31487155  0.20431936  0.10541940    -0.39500
N489        N  0.32572294  0.24809862  0.17164525    -0.39300
N490        N  0.31224568  0.34219764  0.12903097    -0.36900
N491        N  0.47340780  0.34328707  0.05143220    -0.38000
N492        N  0.47653175  0.23774000  0.05838835    -0.39600
C493        C  0.18498851  0.01553951  0.09808431    -0.04600
C494        C  0.17094337  0.00860292  0.13240786     0.09600
C495        C  0.19762196  0.00776889  0.16045349    -0.02000
C496        C  0.22718721  0.03231802  0.15622709    -0.00200
C497        C  0.24557700  0.03058421  0.12309025    -0.03800
C498        C  0.22377661  0.01655799  0.09367930     0.03200
C499        C  0.13041191  0.99880007  0.13638879     0.10000
C500        C  0.21284288  0.97185404  0.16365597     0.35900
C501        C  0.23827602  0.98393748  0.07803738     0.39300
C502        C  0.11830162  0.96243879  0.14110812    -0.04200
C503        C  0.08050838  0.95346683  0.14114037     0.03000
C504        C  0.05352193  0.97989288  0.13412972    -0.03800
C505        C  0.06534842  0.01616280  0.12933168     0.00000
C506        C  0.10301822  0.02562432  0.13082383    -0.02600
C507        C  0.14386695  0.93278836  0.14404565     0.36700
C508        C  0.03861351  0.04453004  0.12406065     0.40300
C509        C  0.07041385  0.91624939  0.14800450     0.39400
C510        C  0.11342324  0.06348242  0.12652533     0.36300
C511        C  0.15926208  0.02557709  0.07040738     0.37000
C512        C  0.22925115  0.06577631  0.17667442     0.40300
N513        N  0.06571453  0.88566400  0.15321491    -0.37800
N514        N  0.16185487  0.90708737  0.14600145    -0.39400
N515        N  0.01800089  0.06783219  0.11967604    -0.37100
N516        N  0.12157199  0.09366466  0.12301142    -0.39500
N517        N  0.22760461  0.94412322  0.16226495    -0.39300
N518        N  0.23101757  0.09328508  0.19212803    -0.36900
N519        N  0.24966472  0.95597723  0.06936737    -0.38000
N520        N  0.13576126  0.03558956  0.05181144    -0.39600
C521        C  0.37811324  0.20966556  0.02237073    -0.04600
C522        C  0.38442681  0.22259427  0.98751318     0.09600
C523        C  0.38412994  0.19374419  0.20825838    -0.02000
C524        C  0.35800242  0.16617861  0.21408669    -0.00200
C525        C  0.36092707  0.14960250  0.99945375    -0.03800
C526        C  0.37696867  0.17138693  0.02781608     0.03200
C527        C  0.39672726  0.26183537  0.98265538     0.10000
C528        C  0.41891059  0.17596323  0.20479759     0.35900
C529        C  0.41102784  0.15780536  0.04187963     0.39300
C530        C  0.43674697  0.26790460  0.22722740    -0.04200
C531        C  0.44959502  0.30439514  0.22851132     0.03000
C532        C  0.42130322  0.33609814  0.98695721    -0.03800
C533        C  0.38470071  0.32698610  0.99358686     0.00000
C534        C  0.37193863  0.29085329  0.98899357    -0.02600
C535        C  0.46385731  0.23944510  0.22756116     0.36700
C536        C  0.36060960  0.35430744  0.00804074     0.40300
C537        C  0.48857651  0.31108551  0.22853950     0.39400
C538        C  0.33315530  0.28371596  0.99262673     0.36300
C539        C  0.36606246  0.23554910  0.04860128     0.37000
C540        C  0.32476490  0.16363616  0.19293330     0.40300
N541        N  0.51993932  0.31464190  0.23020604    -0.37800
N542        N  0.48747295  0.21867499  0.22899018    -0.39400
N543        N  0.34157209  0.37587155  0.02040415    -0.37100
N544        N  0.30224277  0.27829856  0.99574270    -0.39500
N545        N  0.44543814  0.15898712  0.20569005    -0.39300
N546        N  0.29746891  0.16146551  0.17681458    -0.36900
N547        N  0.44018521  0.14834139  0.04952104    -0.38000
N548        N  0.35408436  0.25899314  0.06568128    -0.39600
C549        C  0.13508490  0.94925458  0.02858804    -0.04600
C550        C  0.14680654  0.97631359  0.25243126     0.09600
C551        C  0.12127971  0.99864386  0.23372666    -0.02000
C552        C  0.08317726  0.99328694  0.23758968    -0.00200
C553        C  0.06942742  0.96562140  0.25970742    -0.03800
C554        C  0.09710127  0.94322774  0.03054385     0.03200
C555        C  0.18776105  0.97549286  0.24536331     0.10000
C556        C  0.13297306  0.03012445  0.21416355     0.35900
C557        C  0.08584474  0.91124774  0.04961964     0.39300
C558        C  0.20459676  0.94107917  0.23846542    -0.04200
C559        C  0.24309075  0.93750489  0.23881890     0.03000
C560        C  0.26542086  0.96828867  0.24349934    -0.03800
C561        C  0.25204690  0.00021003  0.99600446     0.00000
C562        C  0.21400629  0.00361479  0.99907863    -0.02600
C563        C  0.18235344  0.90921852  0.22975072     0.36700
C564        C  0.27443806  0.03276672  0.99746349     0.40300
C565        C  0.25990664  0.90249003  0.23255431     0.39400
C566        C  0.20125318  0.03995805  0.00718454     0.36300
C567        C  0.15942661  0.92980852  0.05297457     0.37000
C568        C  0.05779641  0.01760900  0.21999064     0.40300
N569        N  0.27326235  0.87455859  0.22706227    -0.37800
N570        N  0.16456057  0.88377398  0.22333740    -0.39400
N571        N  0.28999192  0.06015135  0.99883038    -0.37100
N572        N  0.19402662  0.06996629  0.01361093    -0.39500
N573        N  0.14098864  0.05688490  0.20019524    -0.39300
N574        N  0.03709642  0.03702630  0.20655058    -0.36900
N575        N  0.08185854  0.88354850  0.06343633    -0.38000
N576        N  0.17916627  0.91338107  0.07115257    -0.39600
C577        C  0.92245768  0.13879468  0.14530468    -0.04600
C578        C  0.89131236  0.14370178  0.12241308     0.09600
C579        C  0.87837537  0.11391457  0.10181792    -0.02000
C580        C  0.89828002  0.08153488  0.10136762    -0.00200
C581        C  0.92599831  0.07494894  0.12758165    -0.03800
C582        C  0.93813212  0.10411573  0.14961863     0.03200
C583        C  0.87566689  0.18093827  0.11718270     0.10000
C584        C  0.84278606  0.11410674  0.08409304     0.35900
C585        C  0.96844767  0.09973964  0.17462802     0.39300
C586        C  0.89936036  0.20902454  0.10624210    -0.04200
C587        C  0.88998742  0.24501829  0.11217772     0.03000
C588        C  0.85365974  0.25404598  0.11883656    -0.03800
C589        C  0.82789897  0.22680501  0.12512138     0.00000
C590        C  0.83924781  0.19021217  0.12665078    -0.02600
C591        C  0.93521818  0.20231245  0.09224069     0.36700
C592        C  0.79039561  0.23684705  0.13150640     0.40300
C593        C  0.91862705  0.27250014  0.11478408     0.39400
C594        C  0.81344139  0.16341371  0.13903508     0.36300
C595        C  0.93957756  0.16992790  0.16284399     0.37000
C596        C  0.89022140  0.05577340  0.07276416     0.40300
N597        N  0.94181549  0.29391789  0.11737371    -0.37800
N598        N  0.96488416  0.20084750  0.08254922    -0.39400
N599        N  0.76034214  0.24474237  0.13632928    -0.37100
N600        N  0.79199178  0.14275532  0.14888413    -0.39500
N601        N  0.81351294  0.11181992  0.07190310    -0.39300
N602        N  0.88465514  0.03655514  0.04847575    -0.36900
N603        N  0.99290750  0.09775757  0.19462784    -0.38000
N604        N  0.95371554  0.19636763  0.17297249    -0.39600
C605        C  0.67736553  0.45511772  0.12058888    -0.04600
C606        C  0.65542053  0.42358424  0.11253114     0.09600
C607        C  0.67454932  0.39051624  0.10559151    -0.02000
C608        C  0.71289524  0.38827271  0.11028916    -0.00200
C609        C  0.73403501  0.41940196  0.11798721    -0.03800
C610        C  0.71624802  0.45292096  0.12257857     0.03200
C611        C  0.61328099  0.42502824  0.11312494     0.10000
C612        C  0.65595759  0.35811462  0.09271954     0.35900
C613        C  0.73814381  0.48492458  0.13077961     0.39300
C614        C  0.59299069  0.45209016  0.09412484    -0.04200
C615        C  0.55488603  0.45536240  0.09828233     0.03000
C616        C  0.53499872  0.43007356  0.11806619    -0.03800
C617        C  0.55405757  0.40310740  0.13672942     0.00000
C618        C  0.59250733  0.40030923  0.13424122    -0.02600
C619        C  0.60971972  0.47683378  0.06923506     0.36700
C620        C  0.53310720  0.37520381  0.15422870     0.40300
C621        C  0.53603745  0.48688226  0.08475860     0.39400
C622        C  0.60926283  0.36980790  0.15166324     0.36300
C623        C  0.66041481  0.48947060  0.13000849     0.37000
C624        C  0.73105160  0.35332226  0.10812171     0.40300
N625        N  0.52008232  0.51227163  0.07580365    -0.37800
N626        N  0.62071497  0.49819294  0.04945373    -0.39400
N627        N  0.51502346  0.35272974  0.16609965    -0.37100
N628        N  0.62124971  0.34382828  0.16420448    -0.39500
N629        N  0.64297343  0.33050778  0.08449730    -0.39300
N630        N  0.74560105  0.32548095  0.10694174    -0.36900
N631        N  0.75566792  0.51047228  0.13747418    -0.38000
N632        N  0.64710899  0.51690978  0.13772339    -0.39600
C633        C  0.95914493  0.19744160  0.24906228    -0.04600
C634        C  0.93512977  0.17526075  0.00630699     0.09600
C635        C  0.89961585  0.19018267  0.01186185    -0.02000
C636        C  0.89292361  0.22787818  0.00893016    -0.00200
C637        C  0.92106071  0.25217071  0.00068811    -0.03800
C638        C  0.95615559  0.23603109  0.24546875     0.03200
C639        C  0.94123764  0.13371142  0.00598868     0.10000
C640        C  0.86808623  0.16741185  0.01712987     0.35900
C641        C  0.98777534  0.25807467  0.23761296     0.39300
C642        C  0.96954796  0.11618792  0.02641775    -0.04200
C643        C  0.97433221  0.07790460  0.02414215     0.03000
C644        C  0.94853252  0.05546232  0.00598747    -0.03800
C645        C  0.91200215  0.07043782  0.23982402     0.00000
C646        C  0.90763644  0.10885706  0.23888287    -0.02600
C647        C  0.99510837  0.13610224  0.04949420     0.36700
C648        C  0.88431014  0.04673076  0.22382798     0.40300
C649        C  0.00845502  0.06196917  0.03632726     0.39400
C650        C  0.87879996  0.12240083  0.21597798     0.36300
C651        C  0.99410069  0.18100017  0.24132975     0.37000
C652        C  0.85610211  0.24178544  0.01270177     0.40300
N653        N  0.03631078  0.04946346  0.04435497    -0.37800
N654        N  0.01729950  0.14978240  0.06778951    -0.39400
N655        N  0.86203750  0.02754576  0.21179973    -0.37100
N656        N  0.85483579  0.13206184  0.19794052    -0.39500
N657        N  0.84104780  0.15118287  0.01715332    -0.39300
N658        N  0.82657678  0.25235353  0.01545384    -0.36900
N659        N  0.01291432  0.27573534  0.23093617    -0.38000
N660        N  0.02211037  0.16836261  0.23477643    -0.39600
C661        C  0.68223580  0.33107370  0.23192081    -0.04600
C662        C  0.66882557  0.36593635  0.24318510     0.09600
C663        C  0.69158509  0.39027855  0.01030421    -0.02000
C664        C  0.72822719  0.38608260  0.00295111    -0.00200
C665        C  0.74447872  0.35186248  0.24322802    -0.03800
C666        C  0.72006833  0.32371088  0.23435739     0.03200
C667        C  0.62974383  0.37844281  0.23803120     0.10000
C668        C  0.68177131  0.42403010  0.02772677     0.35900
C669        C  0.73434338  0.28801501  0.22581879     0.39300
C670        C  0.59766060  0.35965019  0.00898588    -0.04200
C671        C  0.56549511  0.37898934  0.01585601     0.03000
C672        C  0.55991696  0.41270015  0.24430027    -0.03800
C673        C  0.58792206  0.42943697  0.22467724     0.00000
C674        C  0.62246704  0.41269094  0.22195093    -0.02600
C675        C  0.59996939  0.32224666  0.02077765     0.36700
C676        C  0.58494759  0.46675201  0.21335470     0.40300
C677        C  0.54724315  0.36866531  0.04800266     0.39400
C678        C  0.65175109  0.43223447  0.20493011     0.36300
C679        C  0.65890994  0.30273565  0.21675133     0.37000
C680        C  0.75173077  0.41802890  0.00152311     0.40300
N681        N  0.53813655  0.35781363  0.07548663    -0.37800
N682        N  0.60004324  0.29225526  0.02998253    -0.39400
N683        N  0.58703138  0.49685197  0.20491151    -0.37100
N684        N  0.67697834  0.44821144  0.19555486    -0.39500
N685        N  0.67820659  0.45282976  0.03972112    -0.39300
N686        N  0.76988366  0.44377901  0.99986087    -0.36900
N687        N  0.74571116  0.25946116  0.21913284    -0.38000
N688        N  0.64142560  0.27914156  0.20456489    -0.39600
C689        C  0.86968875  0.37530897  0.45543830     0.30900
C690        C  0.87005186  0.37568342  0.28437530     0.30900
C691        C  0.89272950  0.40483852  0.47602413    -0.05300
C692        C  0.83308915  0.37517619  0.47451423    -0.06100
C693        C  0.88780116  0.34166905  0.47541432    -0.06000
C694        C  0.89268341  0.40520636  0.26538570    -0.05300
C695        C  0.83350418  0.37483813  0.26376576    -0.06100
C696        C  0.88865691  0.34244752  0.26449769    -0.06000
C697        C  0.92849220  0.41378678  0.27559690    -0.31400
N698        N  0.94846767  0.42224710  0.49713535     0.15100
C699        C  0.92861265  0.41364963  0.46755053    -0.31400
H700        H  0.94134469  0.40985983  0.44180911     0.17100
C701        C  0.80321104  0.35497440  0.27286760    -0.30300
N702        N  0.78292817  0.34661702  0.24328073     0.13900
C703        C  0.80248630  0.35573934  0.46338072    -0.30300
C704        C  0.90846372  0.31245641  0.27499778    -0.30600
N705        N  0.91800528  0.29242727  0.24566828     0.14400
H706        H  0.91372064  0.30419217  0.30224706     0.17000
C707        C  0.90599358  0.30998791  0.46581323    -0.30600
H708        H  0.91075361  0.30004143  0.43885186     0.17000
H709        H  0.79484427  0.34828521  0.43596940     0.17000
H710        H  0.94116357  0.40969254  0.30171128     0.17100
H711        H  0.79566359  0.34757336  0.29976038     0.17000
C712        C  0.86527896  0.38011427  0.33061793     0.30900
C713        C  0.86467420  0.37980653  0.40918518     0.30900
C714        C  0.89210479  0.40595847  0.35150528    -0.05300
C715        C  0.82974488  0.39430522  0.34967598    -0.06100
C716        C  0.86876208  0.34394136  0.35023380    -0.06000
C717        C  0.89177773  0.40590325  0.39037745    -0.05300
C718        C  0.82905762  0.39410352  0.38867231    -0.06100
C719        C  0.86869520  0.34361867  0.38862260    -0.06000
C720        C  0.89842022  0.44207442  0.40047237    -0.31400
N721        N  0.90670603  0.46241881  0.37199827     0.15100
C722        C  0.89887097  0.44208255  0.34263837    -0.31400
H723        H  0.89465568  0.45442869  0.31668477     0.17100
C724        C  0.79519290  0.40835551  0.39770160    -0.30300
N725        N  0.77573543  0.41607154  0.36708374     0.13900
C726        C  0.79705110  0.40906021  0.33835839    -0.30300
C727        C  0.85428854  0.31018552  0.39759392    -0.30600
N728        N  0.84863138  0.28965428  0.36771107     0.14400
H729        H  0.84779040  0.30104573  0.42430621     0.17000
C730        C  0.85380828  0.31118267  0.33921653    -0.30600
H731        H  0.84804483  0.30263279  0.31174748     0.17000
H732        H  0.78849088  0.41327463  0.31097648     0.17000
H733        H  0.89394608  0.45438975  0.42653613     0.17100
H734        H  0.78467328  0.41194644  0.42449755     0.17000
C735        C  0.38156561  0.01707882  0.28843014     0.30900
C736        C  0.38313140  0.01728526  0.46002682     0.30900
C737        C  0.41868222  0.01068278  0.26911027    -0.05300
C738        C  0.35767072  0.98800906  0.26746790    -0.06100
C739        C  0.36901070  0.05222957  0.26835966    -0.06000
C740        C  0.42023926  0.01094876  0.48071908    -0.05300
C741        C  0.35955285  0.98809485  0.47872979    -0.06100
C742        C  0.37019527  0.05213171  0.48064159    -0.06000
C743        C  0.45156913  0.99284964  0.47078595    -0.31400
N744        N  0.46985429  0.98087397  0.50069452     0.15100
C745        C  0.44996747  0.99251818  0.27981993    -0.31400
H746        H  0.45682270  0.98537431  0.30724430     0.17100
C747        C  0.32734852  0.97210099  0.46698101    -0.30300
N748        N  0.30671145  0.96405369  0.49563144     0.13900
C749        C  0.32440854  0.97321640  0.27607630    -0.30300
C750        C  0.36201694  0.08725973  0.47050671    -0.30600
N751        N  0.35894218  0.10912593  0.50029586     0.14400
H752        H  0.36052692  0.09666965  0.44306686     0.17000
C753        C  0.36209275  0.08797781  0.27863411    -0.30600
H754        H  0.36117176  0.09817199  0.30588206     0.17000
H755        H  0.31352186  0.97315784  0.30274506     0.17000
H756        H  0.45838274  0.98577932  0.44341439     0.17100
H757        H  0.31706067  0.97149587  0.43951751     0.17000
C758        C  0.38198713  0.01728874  0.41369719     0.30900
C759        C  0.38123095  0.01707319  0.33485124     0.30900
C760        C  0.39159786  0.98123018  0.39331426    -0.05300
C761        C  0.34527687  0.02650447  0.39317041    -0.06100
C762        C  0.40829136  0.04389227  0.39439259    -0.06000
C763        C  0.39118893  0.98108045  0.35474878    -0.05300
C764        C  0.34483200  0.02636439  0.35463733    -0.06100
C765        C  0.40802141  0.04368442  0.35561552    -0.06000
C766        C  0.40657493  0.94846309  0.34415486    -0.31400
N767        N  0.41737806  0.92953556  0.37389447     0.15100
C768        C  0.40722814  0.94876306  0.40371665    -0.31400
H769        H  0.41317315  0.94109541  0.43121530     0.17100
C770        C  0.30855027  0.03113531  0.34398066    -0.30300
N771        N  0.28682401  0.03270657  0.37344922     0.13900
C772        C  0.30935999  0.03128073  0.40322837    -0.30300
C773        C  0.42078724  0.07746392  0.34601879    -0.30600
N774        N  0.42718063  0.09860742  0.37579835     0.14400
H775        H  0.42096369  0.08726265  0.31889600     0.17000
C776        C  0.42093400  0.07794731  0.40508753    -0.30600
H777        H  0.42104380  0.08867457  0.43228480     0.17000
H778        H  0.30011312  0.03150959  0.43065253     0.17000
H779        H  0.41193776  0.94049655  0.31664356     0.17100
H780        H  0.29847515  0.03185077  0.31655921     0.17000
C781        C  0.52878121  0.86432150  0.28925182     0.30900
C782        C  0.53020414  0.86483646  0.46023005     0.30900
C783        C  0.52099565  0.90092162  0.26951786    -0.05300
C784        C  0.56429969  0.85288278  0.26951975    -0.06100
C785        C  0.50065618  0.83919286  0.26861692    -0.06000
C786        C  0.52201304  0.90098053  0.48098060    -0.05300
C787        C  0.56628127  0.85396850  0.48039810    -0.06100
C788        C  0.50286968  0.83914784  0.47953326    -0.06000
C789        C  0.50642762  0.93349246  0.47081443    -0.31400
N790        N  0.49607300  0.95240897  0.50072705     0.15100
C791        C  0.50516743  0.93328639  0.28012203    -0.31400
H792        H  0.49897359  0.94074984  0.30757506     0.17100
C793        C  0.60236845  0.85161429  0.47031057    -0.30300
N794        N  0.62419909  0.85022866  0.50035449     0.13900
C795        C  0.60033876  0.85022740  0.28050069    -0.30300
C796        C  0.48626489  0.80722878  0.46817715    -0.30600
N797        N  0.47719421  0.78697987  0.49706881     0.14400
H798        H  0.48548648  0.79712510  0.44081135     0.17000
C799        C  0.48350276  0.80706349  0.27798098    -0.30600
H800        H  0.48318070  0.79577346  0.30474306     0.17000
H801        H  0.61012098  0.85254339  0.30784760     0.17000
H802        H  0.50021605  0.94113951  0.44336102     0.17100
H803        H  0.61238975  0.85388225  0.44317559     0.17000
C804        C  0.52958067  0.86501434  0.41394924     0.30900
C805        C  0.52903923  0.86452208  0.33539221     0.30900
C806        C  0.49208473  0.86944304  0.39366190    -0.05300
C807        C  0.55186056  0.89486918  0.39461741    -0.06100
C808        C  0.54450188  0.83089869  0.39379282    -0.06000
C809        C  0.49181027  0.86929266  0.35487656    -0.05300
C810        C  0.55193490  0.89456962  0.35579815    -0.06100
C811        C  0.54389092  0.83032600  0.35528912    -0.06000
C812        C  0.46090935  0.88828248  0.34439805    -0.31400
N813        N  0.44299329  0.90053296  0.37394302     0.15100
C814        C  0.46138439  0.88855969  0.40371255    -0.31400
H815        H  0.45531789  0.89650367  0.43104157     0.17100
C816        C  0.58385355  0.91196453  0.34646592    -0.30300
N817        N  0.60255370  0.92254452  0.37678649     0.13900
C818        C  0.58320582  0.91267452  0.40580637    -0.30300
C819        C  0.54874629  0.79434677  0.34503209    -0.30600
N820        N  0.55220168  0.77344600  0.37495821     0.14400
H821        H  0.54519348  0.78348248  0.31796753     0.17000
C822        C  0.55056959  0.79572138  0.40437337    -0.30600
H823        H  0.54844188  0.78620474  0.43156257     0.17000
H824        H  0.59338071  0.91425525  0.43316159     0.17000
H825        H  0.45436771  0.89595050  0.31704626     0.17100
H826        H  0.59471321  0.91343239  0.31961825     0.17000
C827        C  0.02036527  0.52923405  0.46070318     0.30900
C828        C  0.01998914  0.52956637  0.28951913     0.30900
C829        C  0.99248004  0.50477446  0.47992965    -0.05300
C830        C  0.05519665  0.51313123  0.48059825    -0.06100
C831        C  0.01866533  0.56557003  0.48130781    -0.06000
C832        C  0.99169157  0.50513536  0.26887018    -0.05300
C833        C  0.05482307  0.51330788  0.27016364    -0.06100
C834        C  0.01805200  0.56600839  0.26999873    -0.06000
C835        C  0.98420679  0.46916356  0.27763819    -0.31400
N836        N  0.97614645  0.44903345  0.24820694     0.15100
C837        C  0.98468781  0.46899380  0.46972118    -0.31400
H838        H  0.98874121  0.45665571  0.44359730     0.17100
C839        C  0.08707462  0.49589982  0.28030255    -0.30300
N840        N  0.10588837  0.48644792  0.25032691     0.13900
C841        C  0.08634765  0.49550952  0.46989360    -0.30300
C842        C  0.03546616  0.59778343  0.28091657    -0.30600
N843        N  0.04438579  0.61742673  0.25209337     0.14400
H844        H  0.04224719  0.60609270  0.30830143     0.17000
C845        C  0.03583896  0.59735314  0.47193957    -0.30600
H846        H  0.04258607  0.60545566  0.44505224     0.17000
H847        H  0.09417558  0.49037022  0.44265987     0.17000
H848        H  0.98832535  0.45669098  0.30355196     0.17100
H849        H  0.09687351  0.49105532  0.30744563     0.17000
C850        C  0.01512852  0.53405074  0.33565252     0.30900
C851        C  0.01540888  0.53347729  0.41426103     0.30900
C852        C  0.99043609  0.50579427  0.35460080    -0.05300
C853        C  0.05162330  0.53194853  0.35615068    -0.06100
C854        C  0.99912473  0.56864563  0.35583093    -0.06000
C855        C  0.99061746  0.50548069  0.39355382    -0.05300
C856        C  0.05173269  0.53196214  0.39459172    -0.06100
C857        C  0.99915565  0.56791117  0.39484053    -0.06000
C858        C  0.95460553  0.49755941  0.40237170    -0.31400
N859        N  0.93423367  0.48949445  0.37295173     0.15100
C860        C  0.95432894  0.49806576  0.34444114    -0.31400
H861        H  0.94182288  0.50202270  0.31823036     0.17100
C862        C  0.08348638  0.54956617  0.40512043    -0.30300
N863        N  0.10400104  0.55663662  0.37632259     0.13900
C864        C  0.08360962  0.54898052  0.34673632    -0.30300
C865        C  0.98169266  0.59896068  0.40583585    -0.30600
N866        N  0.97311927  0.61963525  0.37692458     0.14400
H867        H  0.97659589  0.60685687  0.43312399     0.17000
C868        C  0.98228517  0.60110928  0.34644377    -0.30600
H869        H  0.97779074  0.61133530  0.31954371     0.17000
H870        H  0.09190227  0.55581145  0.31983442     0.17000
H871        H  0.94228950  0.50124520  0.42832395     0.17100
H872        H  0.09183505  0.55633350  0.43243725     0.17000
O873        O  0.90846505  0.94022734  0.29155909    -0.70900
O874        O  0.01274480  0.95272583  0.28975356    -0.71100
O875        O  0.95546301  0.99870441  0.28794347    -0.71000
O876        O  0.96698576  0.89588920  0.29172576    -0.71000
O877        O  0.97611649  0.89561441  0.48472031    -0.70900
O878        O  0.94462500  0.99333664  0.47952992    -0.71000
O879        O  0.01054955  0.95918228  0.48222876    -0.70900
O880        O  0.91024079  0.92769677  0.48411766    -0.71100
V881        V  0.96061136  0.94704953  0.28932832     1.35200
V882        V  0.96018600  0.94420553  0.48350513     1.35200
C883        C  0.89262780  0.92870449  0.51331075     0.78300
C884        C  0.03006974  0.95899628  0.51089589     0.78400
C885        C  0.94759028  0.01419651  0.25850083     0.78300
C886        C  0.97591994  0.87899781  0.26340549     0.78200
O887        O  0.89298708  0.97040704  0.35838994    -0.70900
O888        O  0.99753565  0.96076774  0.35788766    -0.71100
O889        O  0.93885452  0.91340255  0.35962708    -0.71000
O890        O  0.95116993  0.01547160  0.35575943    -0.71000
O891        O  0.94439450  0.02088545  0.41321863    -0.70900
O892        O  0.94713545  0.91591891  0.41753280    -0.71000
O893        O  0.99878157  0.97110900  0.41530350    -0.70900
O894        O  0.89485273  0.96791897  0.41665754    -0.71100
V895        V  0.94521687  0.96490851  0.35899385     1.35200
V896        V  0.94659480  0.96854574  0.41480017     1.35200
C897        C  0.87607942  0.97058179  0.38786046     0.78300
C898        C  0.01608935  0.96769248  0.38637305     0.78400
C899        C  0.94134755  0.89674956  0.38912309     0.78300
C900        C  0.94553934  0.03565028  0.38263239     0.78200
O901        O  0.50222118  0.42587148  0.27179224    -0.70900
O902        O  0.40174390  0.45326786  0.26939375    -0.71100
O903        O  0.43723629  0.39014638  0.26786928    -0.71000
O904        O  0.46557603  0.49095280  0.27176463    -0.71000
O905        O  0.45935967  0.49049946  0.46192419    -0.70900
O906        O  0.44810303  0.38764862  0.46045603    -0.71000
O907        O  0.40211749  0.44472630  0.46126331    -0.70900
O908        O  0.50625313  0.43289862  0.46272204    -0.71100
V909        V  0.45202773  0.44009631  0.26938232     1.35200
V910        V  0.45414493  0.43919289  0.46249451     1.35200
C911        C  0.52231899  0.42375112  0.49181878     0.78300
C912        C  0.38520575  0.45222046  0.48995732     0.78400
C913        C  0.43832438  0.37204929  0.23858923     0.78300
C914        C  0.46267563  0.50929783  0.24309587     0.78200
O915        O  0.41811164  0.39543773  0.33625149    -0.70900
O916        O  0.43640027  0.49939591  0.33752126    -0.71100
O917        O  0.47821159  0.43969577  0.33638865    -0.71000
O918        O  0.37582242  0.45599999  0.33821772    -0.71000
O919        O  0.37965046  0.46179124  0.39628508    -0.70900
O920        O  0.47909188  0.43307372  0.39421107    -0.71000
O921        O  0.44335407  0.49676477  0.39526844    -0.70900
O922        O  0.41435642  0.39591496  0.39427321    -0.71100
V923        V  0.42694783  0.44735410  0.33807987     1.35200
V924        V  0.42889283  0.44666899  0.39395855     1.35200
C925        C  0.41294571  0.37770732  0.36492519     0.78300
C926        C  0.44573702  0.51532290  0.36683121     0.78400
C927        C  0.49642121  0.43452877  0.36514292     0.78300
C928        C  0.36120403  0.46486997  0.36756322     0.78200
C929        C  0.18887471  0.50505571  0.39087177    -0.04600
C930        C  0.21638481  0.52881978  0.37822858     0.09600
C931        C  0.20519265  0.56410933  0.36626911    -0.02000
C932        C  0.16826696  0.57461153  0.36899350    -0.00200
C933        C  0.14195455  0.54851036  0.37706468    -0.03800
C934        C  0.15241062  0.51286326  0.38438795     0.03200
C935        C  0.25453217  0.51400725  0.37353832     0.10000
C936        C  0.22969863  0.58912498  0.34891164     0.35900
C937        C  0.12594469  0.48326034  0.38176450     0.39300
C938        C  0.25923285  0.47940784  0.35639915    -0.04200
C939        C  0.29372043  0.46291449  0.35515677     0.03000
C940        C  0.32463013  0.48161356  0.36837768    -0.03800
C941        C  0.32098806  0.51773745  0.38099220     0.00000
C942        C  0.28628486  0.53328940  0.38536788    -0.02600
C943        C  0.22854863  0.46055634  0.33937524     0.36700
C944        C  0.35294705  0.54067001  0.38575746     0.40300
C945        C  0.29706669  0.42700401  0.33926815     0.39400
C946        C  0.28455939  0.56940354  0.40138266     0.36300
C947        C  0.19622401  0.47024137  0.40691109     0.37000
C948        C  0.15681910  0.61157856  0.36223913     0.40300
N949        N  0.29818165  0.39843684  0.32604095    -0.37800
N950        N  0.20292253  0.44519823  0.32865960    -0.39400
N951        N  0.37746965  0.56039140  0.38883425    -0.37100
N952        N  0.28451242  0.59854510  0.41361289    -0.39500
N953        N  0.24848487  0.60980053  0.33488446    -0.39300
N954        N  0.14756074  0.64121917  0.35757439    -0.36900
N955        N  0.10538201  0.45934137  0.37902124    -0.38000
N956        N  0.19778057  0.44099192  0.41767072    -0.39600
C957        C  0.92069120  0.79456602  0.40071338    -0.04600
C958        C  0.95329053  0.77764573  0.38837153     0.09600
C959        C  0.98067545  0.80163149  0.37499348    -0.02000
C960        C  0.97617678  0.83980595  0.37673555    -0.00200
C961        C  0.94396015  0.85570604  0.38893237    -0.03800
C962        C  0.91445002  0.83200228  0.39508592     0.03200
C963        C  0.95740591  0.73585099  0.38660315     0.10000
C964        C  0.01326231  0.78846909  0.35775485     0.35900
C965        C  0.87820578  0.84169587  0.38255646     0.39300
C966        C  0.92823343  0.71229459  0.37423208    -0.04200
C967        C  0.93297608  0.67391065  0.37245704     0.03000
C968        C  0.96729886  0.65847425  0.37951876    -0.03800
C969        C  0.99644682  0.68118805  0.39025604     0.00000
C970        C  0.99114966  0.71875387  0.39598626    -0.02600
C971        C  0.89519202  0.72697057  0.35786405     0.36700
C972        C  0.03263686  0.66572820  0.39462102     0.40300
C973        C  0.90282075  0.65009140  0.36229073     0.39400
C974        C  0.02095154  0.73865467  0.41299358     0.36300
C975        C  0.89253131  0.77460643  0.41910087     0.37000
C976        C  0.00144998  0.86333319  0.35921503     0.40300
N977        N  0.87870009  0.63099261  0.35440685    -0.37800
N978        N  0.86901998  0.73831634  0.34419874    -0.39400
N979        N  0.06171000  0.65385062  0.39760750    -0.37100
N980        N  0.04615125  0.75356910  0.42517679    -0.39500
N981        N  0.04011463  0.77906496  0.34474131    -0.39300
N982        N  0.01858564  0.88425644  0.34403841    -0.36900
N983        N  0.84937486  0.84752809  0.37070972    -0.38000
N984        N  0.86958233  0.75929049  0.43375706    -0.39600
C985        C  0.28292572  0.43566715  0.46903636    -0.04600
C986        C  0.26530343  0.46316264  0.48995879     0.09600
C987        C  0.28668373  0.48451286  0.26198367    -0.02000
C988        C  0.32500790  0.48078974  0.26195634    -0.00200
C989        C  0.34404141  0.45653479  0.48990131    -0.03800
C990        C  0.32156545  0.43271306  0.46941689     0.03200
C991        C  0.22355150  0.46796843  0.49061652     0.10000
C992        C  0.27204122  0.51429481  0.28269505     0.35900
C993        C  0.33882139  0.40221878  0.45232210     0.39300
C994        C  0.19724706  0.43753732  0.25172905    -0.04200
C995        C  0.15902227  0.44412582  0.25451296     0.03000
C996        C  0.14618491  0.47984316  0.49717147    -0.03800
C997        C  0.16967741  0.50850265  0.48837421     0.00000
C998        C  0.20738305  0.50254651  0.48380754    -0.02600
C999        C  0.21118143  0.40212538  0.26169285     0.36700
C1000       C  0.15478711  0.54481979  0.48460645     0.40300
C1001       C  0.13423507  0.41513235  0.26386519     0.39400
C1002       C  0.22894762  0.53307643  0.47238094     0.36300
C1003       C  0.26265893  0.40916667  0.44743368     0.37000
C1004       C  0.34693463  0.50435068  0.28474019     0.40300
N1005       N  0.11430623  0.39204897  0.27137001    -0.37800
N1006       N  0.22199418  0.37382290  0.26993460    -0.39400
N1007       N  0.14318358  0.57389534  0.48187832    -0.37100
N1008       N  0.24508379  0.55909989  0.46579653    -0.39500
N1009       N  0.26123192  0.53962268  0.29762676    -0.39300
N1010       N  0.36425260  0.52253244  0.30393572    -0.36900
N1011       N  0.35528402  0.37807070  0.44130018    -0.38000
N1012       N  0.24838351  0.38647782  0.43035126    -0.39600
C1013       C  0.04019164  0.79957066  0.50037038    -0.04600
C1014       C  0.02007505  0.77074781  0.26260693     0.09600
C1015       C  0.98700131  0.77830480  0.28038021    -0.02000
C1016       C  0.97274915  0.81358434  0.28146905    -0.00200
C1017       C  0.99139550  0.84202584  0.26480188    -0.03800
C1018       C  0.02635117  0.83512457  0.50111012     0.03200
C1019       C  0.03023860  0.73174002  0.25568579     0.10000
C1020       C  0.96686242  0.74879531  0.29613630     0.35900
C1021       C  0.04798233  0.86426388  0.48663215     0.39300
C1022       C  0.06340463  0.71640826  0.26890513    -0.04200
C1023       C  0.06974387  0.67878694  0.26422205     0.03000
C1024       C  0.04111052  0.65604380  0.25212645    -0.03800
C1025       C  0.00620605  0.67094403  0.49267434     0.00000
C1026       C  0.00231439  0.70837666  0.49049836    -0.02600
C1027       C  0.08962965  0.73796011  0.28974602     0.36700
C1028       C  0.97383240  0.64802616  0.49067989     0.40300
C1029       C  0.10490763  0.66311876  0.27292598     0.39400
C1030       C  0.96849582  0.72210689  0.47518239     0.36300
C1031       C  0.07575893  0.79334527  0.48497484     0.37000
C1032       C  0.93818622  0.81978921  0.29852791     0.40300
N1033       N  0.13321805  0.65063560  0.27915533    -0.37800
N1034       N  0.11076543  0.75481286  0.30656581    -0.39400
N1035       N  0.94757526  0.63039662  0.49038095    -0.37100
N1036       N  0.94037314  0.73211607  0.46501228    -0.39500
N1037       N  0.95161820  0.72280215  0.30445432    -0.39300
N1038       N  0.91020458  0.82364716  0.31183829    -0.36900
N1039       N  0.06603869  0.88722905  0.47558867    -0.38000
N1040       N  0.10426642  0.78905055  0.47273726    -0.39600
C1041       C  0.49237034  0.69239076  0.38896837    -0.04600
C1042       C  0.51549469  0.66206550  0.38175334     0.09600
C1043       C  0.55273226  0.67016394  0.37388123    -0.02000
C1044       C  0.56541420  0.70687781  0.37339843    -0.00200
C1045       C  0.54065458  0.73582797  0.37622984    -0.03800
C1046       C  0.50388572  0.72812923  0.38217659     0.03200
C1047       C  0.49890383  0.62363483  0.37738284     0.10000
C1048       C  0.57796082  0.64157276  0.36432106     0.35900
C1049       C  0.47728725  0.75718377  0.37912881     0.39300
C1050       C  0.46851426  0.61809900  0.35354905    -0.04200
C1051       C  0.45134930  0.58358011  0.34883878     0.03000
C1052       C  0.46331357  0.55309945  0.36884782    -0.03800
C1053       C  0.49457882  0.55824867  0.39148974     0.00000
C1054       C  0.51236469  0.59248451  0.39562142    -0.02600
C1055       C  0.45412202  0.64881343  0.33394455     0.36700
C1056       C  0.51045314  0.52686987  0.40858292     0.40300
C1057       C  0.42084054  0.58170123  0.32377659     0.39400
C1058       C  0.54531774  0.59367080  0.41774136     0.36300
C1059       C  0.45556258  0.68824542  0.40158912     0.37000
C1060       C  0.60374623  0.71514315  0.36931164     0.40300
N1061       N  0.39711098  0.58574838  0.30325908    -0.39800
N1062       N  0.44277011  0.67490560  0.32099126    -0.39400
N1063       N  0.52191443  0.50068733  0.42116616    -0.37100
N1064       N  0.57217151  0.59149040  0.43452854    -0.39500
N1065       N  0.59832180  0.61910950  0.35608959    -0.39300
N1066       N  0.63442495  0.72187276  0.36646692    -0.36900
N1067       N  0.45596686  0.78009555  0.37583695    -0.38000
N1068       N  0.42547498  0.68878131  0.41023029    -0.39600
C1069       C  0.78127761  0.93187100  0.40266700    -0.04600
C1070       C  0.75763504  0.95770640  0.38614943     0.09600
C1071       C  0.77379664  0.99052362  0.37369144    -0.02000
C1072       C  0.81194703  0.99644251  0.37733716    -0.00200
C1073       C  0.83515667  0.96844546  0.38892882    -0.03800
C1074       C  0.81919697  0.93745345  0.40344977     0.03200
C1075       C  0.71669394  0.94996852  0.38224756     0.10000
C1076       C  0.75213238  0.01808799  0.35571808     0.35900
C1077       C  0.84292266  0.91190178  0.42038767     0.39300
C1078       C  0.68996242  0.97461697  0.39548827    -0.04200
C1079       C  0.65229410  0.96601698  0.39233378     0.03000
C1080       C  0.64077904  0.93208659  0.37835183    -0.03800
C1081       C  0.66702575  0.90647595  0.36804999     0.00000
C1082       C  0.70410063  0.91629974  0.36703186    -0.02600
C1083       C  0.70055373  0.00809005  0.41402754     0.36700
C1084       C  0.65664460  0.86859948  0.36335454     0.40300
C1085       C  0.62506490  0.99129511  0.40507698     0.39400
C1086       C  0.72935565  0.89061162  0.35157147     0.36300
C1087       C  0.76746465  0.89836998  0.41753931     0.37000
C1088       C  0.82565745  0.03312760  0.37682507     0.40300
N1089       N  0.60319282  0.01121918  0.41550645    -0.37800
N1090       N  0.70865491  0.03488849  0.42888743    -0.39400
N1091       N  0.64941323  0.83796117  0.36121113    -0.37100
N1092       N  0.75072263  0.87000469  0.34156932    -0.39500
N1093       N  0.73526354  0.04020987  0.34109219    -0.39300
N1094       N  0.83479267  0.06314495  0.37927802    -0.36900
N1095       N  0.86515789  0.89400730  0.43308679    -0.38000
N1096       N  0.75623323  0.87076449  0.42715351    -0.39600
C1097       C  0.49062875  0.60953703  0.25707629    -0.04600
C1098       C  0.46195803  0.62901696  0.23932200     0.09600
C1099       C  0.43781118  0.60639360  0.47080762    -0.02000
C1100       C  0.43685990  0.56804817  0.47497659    -0.00200
C1101       C  0.46291379  0.55027818  0.24268975    -0.03800
C1102       C  0.49311611  0.57119593  0.25439505     0.03200
C1103       C  0.46285826  0.67117629  0.23827080     0.10000
C1104       C  0.40810397  0.62223826  0.45018216     0.35900
C1105       C  0.52833906  0.55437225  0.25930603     0.39300
C1106       C  0.50087346  0.68915890  0.48048526    -0.04200
C1107       C  0.50417021  0.72677133  0.48760845     0.03000
C1108       C  0.46881806  0.74919719  0.24570199    -0.03800
C1109       C  0.43474539  0.73194775  0.24863702     0.00000
C1110       C  0.43177695  0.69325018  0.24660308    -0.02600
C1111       C  0.53321679  0.67181630  0.46697578     0.36700
C1112       C  0.40310031  0.75422297  0.25557947     0.40300
C1113       C  0.54002687  0.74381664  0.48987667     0.39400
C1114       C  0.39744112  0.67704259  0.25695646     0.36300
C1115       C  0.51767407  0.62835504  0.27921195     0.37000
C1116       C  0.40340583  0.54815084  0.46702119     0.40300
N1117       N  0.56875514  0.75689967  0.49255526    -0.37800
N1118       N  0.56136924  0.66153092  0.45792721    -0.39400
N1119       N  0.37787323  0.77210181  0.26115905    -0.37100
N1120       N  0.36994905  0.66472676  0.26582263    -0.39500
N1121       N  0.38279168  0.63272463  0.43436061    -0.39300
N1122       N  0.37641152  0.53241676  0.46183524    -0.36900
N1123       N  0.55727271  0.54224315  0.26239825    -0.38000
N1124       N  0.53965731  0.64415055  0.29580428    -0.39600
C1125       C  0.80962837  0.86456269  0.50030902    -0.04600
C1126       C  0.77999938  0.88592210  0.51275237     0.09600
C1127       C  0.78696601  0.92095069  0.27886683    -0.02000
C1128       C  0.82246859  0.93604264  0.27622799    -0.00200
C1129       C  0.85414410  0.91354255  0.51535953    -0.03800
C1130       C  0.84632177  0.87704429  0.50465901     0.03200
C1131       C  0.73968360  0.87457168  0.50688692     0.10000
C1132       C  0.75862606  0.94309348  0.29452580     0.35900
C1133       C  0.87569225  0.85331319  0.49360269     0.39300
C1134       C  0.72411219  0.84013760  0.26873965    -0.04200
C1135       C  0.68631922  0.83131634  0.26510995     0.03000
C1136       C  0.66308926  0.85766956  0.50140345    -0.03800
C1137       C  0.67612680  0.89221611  0.49209473     0.00000
C1138       C  0.71390668  0.89962171  0.49200201    -0.02600
C1139       C  0.74809203  0.81403220  0.28596724     0.36700
C1140       C  0.65046670  0.92153168  0.48624840     0.40300
C1141       C  0.67299529  0.79581915  0.27530074     0.39400
C1142       C  0.72573375  0.93398331  0.47737532     0.36300
C1143       C  0.80294419  0.83112023  0.48004768     0.37000
C1144       C  0.82520962  0.97515764  0.27843679     0.40300
N1145       N  0.66231226  0.76745474  0.28338941    -0.37800
N1146       N  0.76700899  0.79310659  0.29990498    -0.39400
N1147       N  0.63055538  0.94564741  0.48295698    -0.37100
N1148       N  0.73597094  0.96194999  0.46774517    -0.39500
N1149       N  0.73466952  0.96095243  0.30397343    -0.39300
N1150       N  0.82210164  0.00644006  0.27873480    -0.36900
N1151       N  0.89833532  0.83465836  0.48256536    -0.38000
N1152       N  0.79800697  0.80452534  0.46360079    -0.39600
C1153       C  0.43336201  0.27549562  0.34868248    -0.04600
C1154       C  0.40935955  0.25740310  0.37229024     0.09600
C1155       C  0.38193767  0.27963612  0.38824567    -0.02000
C1156       C  0.37991587  0.31767016  0.38101370    -0.00200
C1157       C  0.40887286  0.33615034  0.36447594    -0.03800
C1158       C  0.43411970  0.31396112  0.34649996     0.03200
C1159       C  0.41238759  0.21562948  0.37650870     0.10000
C1160       C  0.35315087  0.26399834  0.40910175     0.35900
C1161       C  0.45900674  0.33014701  0.32239654     0.39300
C1162       C  0.44761612  0.19969457  0.38254350    -0.04200
C1163       C  0.45286712  0.16143002  0.37995115     0.03000
C1164       C  0.42277542  0.13780065  0.37616691    -0.03800
C1165       C  0.38759635  0.15269304  0.37339082     0.00000
C1166       C  0.38223921  0.19076145  0.37179186    -0.02600
C1167       C  0.47862126  0.22237760  0.39322955     0.36700
C1168       C  0.35632118  0.12841348  0.37145414     0.40300
C1169       C  0.48898660  0.14597431  0.38375069     0.39400
C1170       C  0.34517719  0.20214374  0.36392241     0.36300
C1171       C  0.45658117  0.25450671  0.32498908     0.37000
C1172       C  0.34452283  0.33475777  0.38167225     0.40300
N1173       N  0.51781405  0.13357650  0.38696035    -0.37800
N1174       N  0.50344428  0.24050622  0.40128906    -0.39400
N1175       N  0.33058894  0.11011457  0.36998893    -0.37100
N1176       N  0.31500599  0.20915468  0.35732337    -0.39500
N1177       N  0.32866727  0.25206929  0.42432985    -0.39300
N1178       N  0.31541515  0.34680099  0.38177084    -0.36900
N1179       N  0.47814804  0.34159981  0.30117669    -0.38000
N1180       N  0.47584963  0.23755972  0.30714710    -0.39600
C1181       C  0.18662434  0.01478521  0.34870734    -0.04600
C1182       C  0.17316766  0.00581669  0.38283112     0.09600
C1183       C  0.19984740  0.00522084  0.41085882    -0.02000
C1184       C  0.22869991  0.03059242  0.40702820    -0.00200
C1185       C  0.24676923  0.03031936  0.37377391    -0.03800
C1186       C  0.22521402  0.01653821  0.34408392     0.03200
C1187       C  0.13295949  0.99551132  0.38708796     0.10000
C1188       C  0.21584073  0.96962381  0.41378772     0.35900
C1189       C  0.23956002  0.98394479  0.32822623     0.39300
C1190       C  0.12118923  0.95896783  0.39163587    -0.04200
C1191       C  0.08344449  0.94976118  0.39184555     0.03000
C1192       C  0.05638546  0.97627443  0.38561258    -0.03800
C1193       C  0.06799733  0.01257141  0.38068180     0.00000
C1194       C  0.10547509  0.02225534  0.38219834    -0.02600
C1195       C  0.14704299  0.92952303  0.39422906     0.36700
C1196       C  0.04144087  0.04086593  0.37459455     0.40300
C1197       C  0.07330336  0.91231178  0.39769752     0.39400
C1198       C  0.11553601  0.06034608  0.37868906     0.36300
C1199       C  0.16073687  0.02598995  0.32161672     0.37000
C1200       C  0.23123363  0.06294661  0.42913028     0.40300
N1201       N  0.06798190  0.88167119  0.40209969    -0.37800
N1202       N  0.16552320  0.90413646  0.39578915    -0.39400
N1203       N  0.02165150  0.06471469  0.36961218    -0.37100
N1204       N  0.12336451  0.09069452  0.37581958    -0.39500
N1205       N  0.23109805  0.94216139  0.41240337    -0.39300
N1206       N  0.23363372  0.08968854  0.44581046    -0.36900
N1207       N  0.25006933  0.95571131  0.31929211    -0.38000
N1208       N  0.13709517  0.03660580  0.30352598    -0.39600
C1209       C  0.37689829  0.20909546  0.27020649    -0.04600
C1210       C  0.38526363  0.22109788  0.23536131     0.09600
C1211       C  0.38161633  0.19459491  0.46020445    -0.02000
C1212       C  0.35584735  0.16681030  0.46641749    -0.00200
C1213       C  0.35973392  0.14900030  0.24789920    -0.03800
C1214       C  0.37515842  0.17105620  0.27638155     0.03200
C1215       C  0.39891407  0.25982472  0.23026875     0.10000
C1216       C  0.41611359  0.17683613  0.45515070     0.35900
C1217       C  0.40896038  0.15789972  0.29138178     0.39300
C1218       C  0.43533339  0.26770386  0.47826447    -0.04200
C1219       C  0.44845310  0.30406388  0.47799782     0.03000
C1220       C  0.42563024  0.33322237  0.23634343    -0.03800
C1221       C  0.38907028  0.32474137  0.24360801     0.00000
C1222       C  0.37504839  0.28943327  0.23713322    -0.02600
C1223       C  0.46218606  0.23901238  0.47833312     0.36700
C1224       C  0.36677915  0.35130526  0.26178396     0.40300
C1225       C  0.48728495  0.31044688  0.47473193     0.39400
C1226       C  0.33599562  0.28362756  0.24027050     0.36300
C1227       C  0.36687831  0.23563085  0.29673244     0.37000
C1228       C  0.32297732  0.16332160  0.44480633     0.40300
N1229       N  0.51866321  0.31365420  0.47388643    -0.37800
N1230       N  0.48554849  0.21794610  0.47948804    -0.39400
N1231       N  0.34942543  0.37223636  0.27725137    -0.37100
N1232       N  0.30487145  0.27934801  0.24308801    -0.39500
N1233       N  0.44245839  0.15959716  0.45527701    -0.39300
N1234       N  0.29602203  0.16075736  0.42817486    -0.36900
N1235       N  0.43821789  0.14932891  0.29970445    -0.38000
N1236       N  0.35667592  0.25971352  0.31411259    -0.39600
C1237       C  0.13277666  0.95220965  0.27829302    -0.04600
C1238       C  0.14866209  0.97415144  0.50240506     0.09600
C1239       C  0.12356083  0.99716081  0.48395479    -0.02000
C1240       C  0.08532909  0.99283522  0.48808924    -0.00200
C1241       C  0.07092190  0.96538445  0.51008502    -0.03800
C1242       C  0.09495100  0.94542690  0.28050685     0.03200
C1243       C  0.18974986  0.97332189  0.49584861     0.10000
C1244       C  0.13602075  0.02839511  0.46447947     0.35900
C1245       C  0.08468534  0.91321782  0.29970162     0.39300
C1246       C  0.20687119  0.93903386  0.48888286    -0.04200
C1247       C  0.24541879  0.93575660  0.48932003     0.03000
C1248       C  0.26748791  0.96673449  0.49385927    -0.03800
C1249       C  0.24925064  0.00278508  0.24643640     0.00000
C1250       C  0.21110529  0.00660859  0.24858706    -0.02600
C1251       C  0.18496316  0.90696085  0.48017787     0.36700
C1252       C  0.27194216  0.03506750  0.24855175     0.40300
C1253       C  0.26260460  0.90080659  0.48368514     0.39400
C1254       C  0.19808700  0.04308791  0.25566826     0.36300
C1255       C  0.15778952  0.93283606  0.30208298     0.37000
C1256       C  0.06060471  0.01811749  0.47098589     0.40300
N1257       N  0.27637253  0.87294654  0.47889181    -0.37800
N1258       N  0.16755806  0.88124334  0.47380658    -0.39400
N1259       N  0.28772036  0.06230974  0.25020646    -0.37100
N1260       N  0.19027832  0.07308395  0.26140202    -0.39500
N1261       N  0.14493787  0.05498558  0.45073767    -0.39300
N1262       N  0.04067219  0.03845106  0.45778902    -0.36900
N1263       N  0.08192432  0.88531843  0.31341413    -0.38000
N1264       N  0.17808246  0.91648710  0.31971950    -0.39600
C1265       C  0.93235770  0.13912637  0.38809074    -0.04600
C1266       C  0.90343261  0.14384079  0.36225078     0.09600
C1267       C  0.89108745  0.11285012  0.34254348    -0.02000
C1268       C  0.90753403  0.07900126  0.34805755    -0.00200
C1269       C  0.93376608  0.07374715  0.37578636    -0.03800
C1270       C  0.94630917  0.10417023  0.39577864     0.03200
C1271       C  0.88640219  0.18090162  0.35751785     0.10000
C1272       C  0.85927668  0.11262109  0.31887409     0.35900
C1273       C  0.97429758  0.10032357  0.42338805     0.39300
C1274       C  0.90930993  0.21142326  0.35149758    -0.04200
C1275       C  0.89758325  0.24624508  0.36046094     0.03000
C1276       C  0.86053341  0.25279302  0.36602469    -0.03800
C1277       C  0.83589092  0.22379961  0.36744284     0.00000
C1278       C  0.84884466  0.18769131  0.36510016    -0.02600
C1279       C  0.94599612  0.20890029  0.33813804     0.36700
C1280       C  0.79766665  0.23147014  0.37306525     0.40300
C1281       C  0.92424234  0.27542831  0.36559657     0.39400
C1282       C  0.82303045  0.15869241  0.37144659     0.36300
C1283       C  0.94808359  0.17033684  0.40689090     0.37000
C1284       C  0.89492428  0.04843847  0.32627030     0.40300
N1285       N  0.94574540  0.29830576  0.36995160    -0.37800
N1286       N  0.97562695  0.21257830  0.32866537    -0.39400
N1287       N  0.76714948  0.23766278  0.37755072    -0.37100
N1288       N  0.80122503  0.13654804  0.37646544    -0.39500
N1289       N  0.83334046  0.10626198  0.30159080    -0.39300
N1290       N  0.88550886  0.02381907  0.30895281    -0.36900
N1291       N  0.99693045  0.09884410  0.44543679    -0.38000
N1292       N  0.96124924  0.19633227  0.41934140    -0.39600
C1293       C  0.68008575  0.45595051  0.36833325    -0.04600
C1294       C  0.65780601  0.42505596  0.35874608     0.09600
C1295       C  0.67655405  0.39210680  0.35036600    -0.02000
C1296       C  0.71491312  0.38934214  0.35447706    -0.00200
C1297       C  0.73631111  0.41972248  0.36438336    -0.03800
C1298       C  0.71890438  0.45315016  0.37069068     0.03200
C1299       C  0.61568892  0.42688346  0.35947540     0.10000
C1300       C  0.65749006  0.36000489  0.33750107     0.35900
C1301       C  0.74114841  0.48431745  0.38109866     0.39300
C1302       C  0.59563803  0.45462746  0.34119347    -0.04200
C1303       C  0.55743290  0.45786882  0.34517894     0.03000
C1304       C  0.53737072  0.43243182  0.36470343    -0.03800
C1305       C  0.55636422  0.40504338  0.38290134     0.00000
C1306       C  0.59477403  0.40181090  0.38004957    -0.02600
C1307       C  0.61292306  0.48027653  0.31753277     0.36700
C1308       C  0.53532317  0.37714717  0.40030664     0.40300
C1309       C  0.53861869  0.48958726  0.33211716     0.39400
C1310       C  0.61143458  0.37076983  0.39683301     0.36300
C1311       C  0.66347444  0.48991711  0.37949926     0.37000
C1312       C  0.73264811  0.35440953  0.34964289     0.40300
N1313       N  0.52233223  0.51500139  0.32382415    -0.37800
N1314       N  0.62465727  0.50225184  0.29883729    -0.39400
N1315       N  0.51719426  0.35472794  0.41222130    -0.37100
N1316       N  0.62365440  0.34471610  0.40911035    -0.39500
N1317       N  0.64439444  0.33232740  0.32976572    -0.39300
N1318       N  0.74642589  0.32635572  0.34618570    -0.36900
N1319       N  0.75903907  0.50910922  0.38957670    -0.38000
N1320       N  0.65048110  0.51707588  0.38859861    -0.39600
C1321       C  0.95656266  0.19656631  0.49767686    -0.04600
C1322       C  0.92790421  0.17515213  0.25644715     0.09600
C1323       C  0.89364825  0.19410396  0.25869247    -0.02000
C1324       C  0.89108817  0.23194372  0.25262622    -0.00200
C1325       C  0.92210257  0.25320510  0.24735639    -0.03800
C1326       C  0.95360652  0.23516787  0.49618957     0.03200
C1327       C  0.93143666  0.13302080  0.25888138     0.10000
C1328       C  0.85919426  0.17723733  0.26647712     0.35900
C1329       C  0.98583895  0.25779654  0.49355576     0.39300
C1330       C  0.96064906  0.11583536  0.27859535    -0.04200
C1331       C  0.96767547  0.07808721  0.27465784     0.03000
C1332       C  0.94251100  0.05479703  0.25706206    -0.03800
C1333       C  0.91136065  0.06905056  0.48533517     0.00000
C1334       C  0.90734941  0.10738278  0.48268825    -0.02600
C1335       C  0.98403317  0.13494515  0.30436595     0.36700
C1336       C  0.88368450  0.04507924  0.46964500     0.40300
C1337       C  0.00279027  0.06353574  0.28588379     0.39400
C1338       C  0.88180717  0.12041923  0.45588840     0.36300
C1339       C  0.99218041  0.18075550  0.49172187     0.37000
C1340       C  0.85566334  0.24976273  0.25092444     0.40300
N1341       N  0.03124730  0.05204938  0.29333042    -0.37800
N1342       N  0.00499994  0.14625065  0.32543325    -0.39400
N1343       N  0.86094314  0.02624025  0.45789422    -0.37100
N1344       N  0.86065321  0.12983919  0.43454754    -0.39500
N1345       N  0.82886870  0.16948783  0.27005631    -0.39300
N1346       N  0.82754801  0.26389201  0.24919456    -0.36900
N1347       N  0.01165028  0.27585861  0.49166727    -0.38000
N1348       N  0.02077485  0.16864318  0.48679380    -0.39600
C1349       C  0.68255423  0.32800572  0.47892411    -0.04600
C1350       C  0.66839995  0.36186522  0.49161383     0.09600
C1351       C  0.69469986  0.39166887  0.25705133    -0.02000
C1352       C  0.73150847  0.38660973  0.25120250    -0.00200
C1353       C  0.74426316  0.35004327  0.49154563    -0.03800
C1354       C  0.72061885  0.32161487  0.48097578     0.03200
C1355       C  0.62950506  0.37389346  0.48558846     0.10000
C1356       C  0.68487235  0.42571625  0.27403796     0.35900
C1357       C  0.73575401  0.28694414  0.47015807     0.39300
C1358       C  0.60072982  0.36084743  0.25493238    -0.04200
C1359       C  0.56874682  0.38014063  0.26230997     0.03000
C1360       C  0.56052150  0.40908929  0.49197593    -0.03800
C1361       C  0.58843498  0.42505127  0.47168473     0.00000
C1362       C  0.62266857  0.40789479  0.46906474    -0.02600
C1363       C  0.60276923  0.32329203  0.26626384     0.36700
C1364       C  0.58576682  0.46207698  0.45949517     0.40300
C1365       C  0.55118872  0.36982402  0.29480752     0.39400
C1366       C  0.65237173  0.42670070  0.45190299     0.36300
C1367       C  0.65930040  0.30008764  0.46280783     0.37000
C1368       C  0.75558011  0.41812226  0.24974381     0.40300
N1369       N  0.54280303  0.35900133  0.32251347    -0.37800
N1370       N  0.60253280  0.29327077  0.27537429    -0.39400
N1371       N  0.58818010  0.49191986  0.45035566    -0.37100
N1372       N  0.67808043  0.44158783  0.44213097    -0.39500
N1373       N  0.68069640  0.45452901  0.28583690    -0.39300
N1374       N  0.77424162  0.44349785  0.24790305    -0.36900
N1375       N  0.74770251  0.25918218  0.46146401    -0.38000
N1376       N  0.64142133  0.27717536  0.44990270    -0.39600
C1377       C  0.86968161  0.37542078  0.70555625     0.30900
C1378       C  0.86941742  0.37584765  0.53403124     0.30900
C1379       C  0.89321315  0.40452598  0.72624415    -0.05300
C1380       C  0.83318250  0.37606871  0.72479414    -0.06100
C1381       C  0.88728155  0.34142762  0.72553827    -0.06000
C1382       C  0.89251951  0.40508606  0.51500815    -0.05300
C1383       C  0.83298427  0.37513459  0.51298979    -0.06100
C1384       C  0.88775858  0.34224507  0.51444878    -0.06000
C1385       C  0.92825361  0.41389400  0.52548552    -0.31400
N1386       N  0.94902493  0.42168918  0.74731334     0.15100
C1387       C  0.92913701  0.41303298  0.71773958    -0.31400
H1388       H  0.94174599  0.40930479  0.69192356     0.17100
C1389       C  0.80270957  0.35499531  0.52177272    -0.30300
N1390       N  0.78291816  0.34609601  0.49196066     0.13900
C1391       C  0.80196242  0.35767926  0.71374858    -0.30300
C1392       C  0.90622988  0.31149139  0.52518458    -0.30600
N1393       N  0.91558498  0.29129151  0.49597017     0.14400
H1394       H  0.91092234  0.30300012  0.55235588     0.17000
C1395       C  0.90601708  0.30996802  0.71601438    -0.30600
H1396       H  0.91087111  0.30004916  0.68905151     0.17000
H1397       H  0.79419001  0.34995885  0.68644738     0.17000
H1398       H  0.94077913  0.40990439  0.55166913     0.17100
H1399       H  0.79476727  0.34782824  0.54864482     0.17000
C1400       C  0.86458776  0.38051764  0.58041169     0.30900
C1401       C  0.86452907  0.38016698  0.65919833     0.30900
C1402       C  0.89167066  0.40622306  0.60129527    -0.05300
C1403       C  0.82920856  0.39472651  0.59972712    -0.06100
C1404       C  0.86789349  0.34439891  0.60005891    -0.06000
C1405       C  0.89171409  0.40603244  0.64020408    -0.05300
C1406       C  0.82887003  0.39470367  0.63879624    -0.06100
C1407       C  0.86825320  0.34403159  0.63849621    -0.06000
C1408       C  0.89917567  0.44200070  0.65041774    -0.31400
N1409       N  0.90748787  0.46233827  0.62192133     0.15100
C1410       C  0.89889771  0.44230575  0.59252343    -0.31400
H1411       H  0.89471488  0.45478552  0.56662182     0.17100
C1412       C  0.79507786  0.40900427  0.64800599    -0.30300
N1413       N  0.77517972  0.41605463  0.61751818     0.13900
C1414       C  0.79614963  0.40881300  0.58858718    -0.30300
C1415       C  0.85387060  0.31065569  0.64756034    -0.30600
N1416       N  0.84768374  0.29028386  0.61766520     0.14400
H1417       H  0.84770477  0.30144470  0.67432985     0.17000
C1418       C  0.85230669  0.31191009  0.58920005    -0.30600
H1419       H  0.84590439  0.30349685  0.56180185     0.17000
H1420       H  0.78714998  0.41242511  0.56126122     0.17000
H1421       H  0.89528804  0.45423400  0.67661869     0.17100
H1422       H  0.78488674  0.41315150  0.67486253     0.17000
C1423       C  0.38293940  0.01663256  0.53883504     0.30900
C1424       C  0.38411757  0.01613513  0.71051540     0.30900
C1425       C  0.42010555  0.01059093  0.51951496    -0.05300
C1426       C  0.35924768  0.98779705  0.51749120    -0.06100
C1427       C  0.37037428  0.05206573  0.51912156    -0.06000
C1428       C  0.42126973  0.00986565  0.73105252    -0.05300
C1429       C  0.36032058  0.98730418  0.72977763    -0.06100
C1430       C  0.37156690  0.05137737  0.73079222    -0.06000
C1431       C  0.45250680  0.99167794  0.72107258    -0.31400
N1432       N  0.47096010  0.97996181  0.75096613     0.15100
C1433       C  0.45137443  0.99238056  0.53020507    -0.31400
H1434       H  0.45806810  0.98492802  0.55758332     0.17100
C1435       C  0.32770297  0.97149183  0.71873849    -0.30300
N1436       N  0.30731057  0.96401496  0.74779892     0.13900
C1437       C  0.32645226  0.97205328  0.52611512    -0.30300
C1438       C  0.36362152  0.08649831  0.72046067    -0.30600
N1439       N  0.36058626  0.10859673  0.75011025     0.14400
H1440       H  0.36223607  0.09571842  0.69298286     0.17000
C1441       C  0.36278243  0.08756067  0.52979594    -0.30600
H1442       H  0.36186543  0.09739241  0.55719334     0.17000
H1443       H  0.31558750  0.97150585  0.55282536     0.17000
H1444       H  0.45917049  0.98439151  0.69372253     0.17100
H1445       H  0.31705874  0.97057541  0.69140180     0.17000
C1446       C  0.38318163  0.01579830  0.66418461     0.30900
C1447       C  0.38240770  0.01586579  0.58527895     0.30900
C1448       C  0.39248028  0.97968561  0.64365539    -0.05300
C1449       C  0.34663770  0.02526695  0.64376425    -0.06100
C1450       C  0.40970727  0.04215484  0.64486619    -0.06000
C1451       C  0.39213024  0.97971259  0.60502234    -0.05300
C1452       C  0.34609163  0.02518989  0.60522191    -0.06100
C1453       C  0.40939652  0.04201957  0.60611618    -0.06000
C1454       C  0.40794112  0.94737013  0.59430595    -0.31400
N1455       N  0.41887171  0.92841219  0.62397257     0.15100
C1456       C  0.40843864  0.94734028  0.65388565    -0.31400
H1457       H  0.41454815  0.93965948  0.68134699     0.17100
C1458       C  0.30973740  0.02965998  0.59479884    -0.30300
N1459       N  0.28823489  0.03139027  0.62441311     0.13900
C1460       C  0.31085981  0.03003271  0.65405228    -0.30300
C1461       C  0.42283728  0.07542148  0.59641470    -0.30600
N1462       N  0.42963714  0.09639472  0.62618341     0.14400
H1463       H  0.42270505  0.08537319  0.56932210     0.17000
C1464       C  0.42306134  0.07591266  0.65553984    -0.30600
H1465       H  0.42316864  0.08675105  0.68270893     0.17000
H1466       H  0.30173548  0.03042886  0.68148517     0.17000
H1467       H  0.41364281  0.93972252  0.56678325     0.17100
H1468       H  0.29946861  0.03005010  0.56746618     0.17000
C1469       C  0.53094436  0.86398771  0.53908539     0.30900
C1470       C  0.53160878  0.86393529  0.71054769     0.30900
C1471       C  0.52229622  0.90066608  0.51957971    -0.05300
C1472       C  0.56655850  0.85348625  0.51899841    -0.06100
C1473       C  0.50328185  0.83849910  0.51826579    -0.06000
C1474       C  0.52334527  0.90010499  0.73128181    -0.05300
C1475       C  0.56734210  0.85278750  0.73114026    -0.06100
C1476       C  0.50385698  0.83844986  0.72950511    -0.06000
C1477       C  0.50772181  0.93263153  0.72112809    -0.31400
N1478       N  0.49714283  0.95146170  0.75103148     0.15100
C1479       C  0.50671461  0.93316650  0.53035215    -0.31400
H1480       H  0.50080871  0.94066198  0.55786633     0.17100
C1481       C  0.60342102  0.84937491  0.72142525    -0.30300
N1482       N  0.62491688  0.84708751  0.75167483     0.13900
C1483       C  0.60264461  0.85073259  0.52974673    -0.30300
C1484       C  0.48703025  0.80688680  0.71761632    -0.30600
N1485       N  0.47776313  0.78620993  0.74608330     0.14400
H1486       H  0.48636231  0.79725448  0.69013871     0.17000
C1487       C  0.48706263  0.80586227  0.52748432    -0.30600
H1488       H  0.48646376  0.79462402  0.55425037     0.17000
H1489       H  0.61267639  0.85253294  0.55709608     0.17000
H1490       H  0.50170443  0.94037801  0.69366397     0.17100
H1491       H  0.61375644  0.85165375  0.69440624     0.17000
C1492       C  0.53156388  0.86387708  0.66420348     0.30900
C1493       C  0.53136277  0.86347977  0.58540145     0.30900
C1494       C  0.49444066  0.86953314  0.64364745    -0.05300
C1495       C  0.55499774  0.89286652  0.64486620    -0.06100
C1496       C  0.54529451  0.82913763  0.64406930    -0.06000
C1497       C  0.49431488  0.86948798  0.60491265    -0.05300
C1498       C  0.55514989  0.89269534  0.60613123    -0.06100
C1499       C  0.54487227  0.82851358  0.60549120    -0.06000
C1500       C  0.46316689  0.88802307  0.59436018    -0.31400
N1501       N  0.44500567  0.89989233  0.62393662     0.15100
C1502       C  0.46343343  0.88803183  0.65373604    -0.31400
H1503       H  0.45698766  0.89547605  0.68110526     0.17100
C1504       C  0.58642214  0.91129669  0.59684888    -0.30300
N1505       N  0.60487696  0.92229070  0.62725288     0.13900
C1506       C  0.58582397  0.91149468  0.65621407    -0.30300
C1507       C  0.54945855  0.79225079  0.59552610    -0.30600
N1508       N  0.55245653  0.77134153  0.62559414     0.14400
H1509       H  0.54662507  0.78127278  0.56843398     0.17000
C1510       C  0.55096570  0.79387111  0.65486726    -0.30600
H1511       H  0.54906649  0.78454393  0.68216205     0.17000
H1512       H  0.59586358  0.91305397  0.68357755     0.17000
H1513       H  0.45638758  0.89542988  0.56698681     0.17100
H1514       H  0.59710565  0.91341024  0.56997673     0.17000
C1515       C  0.01983846  0.52979303  0.71093076     0.30900
C1516       C  0.02133209  0.52923218  0.53939055     0.30900
C1517       C  0.99193175  0.50490697  0.72986117    -0.05300
C1518       C  0.05449539  0.51417602  0.73137818    -0.06100
C1519       C  0.01755077  0.56610405  0.73143338    -0.06000
C1520       C  0.99291676  0.50465132  0.51886584    -0.05300
C1521       C  0.05612335  0.51319927  0.51965159    -0.06100
C1522       C  0.01903863  0.56560073  0.51980478    -0.06000
C1523       C  0.98513008  0.46868664  0.52759940    -0.31400
N1524       N  0.97642759  0.44876665  0.49815477     0.15100
C1525       C  0.98473732  0.46891014  0.71975240    -0.31400
H1526       H  0.98904417  0.45657588  0.69366149     0.17100
C1527       C  0.08876462  0.49613216  0.52932820    -0.30300
N1528       N  0.10721384  0.48665662  0.49906604     0.13900
C1529       C  0.08571415  0.49648663  0.72121931    -0.30300
C1530       C  0.03621033  0.59755038  0.53046100    -0.30600
N1531       N  0.04376588  0.61756125  0.50152076     0.14400
H1532       H  0.04375735  0.60574079  0.55770271     0.17000
C1533       C  0.03565702  0.59750296  0.72241246    -0.30600
H1534       H  0.04324596  0.60552748  0.69565399     0.17000
H1535       H  0.09385436  0.49105200  0.69412342     0.17000
H1536       H  0.98925437  0.45613087  0.55348254     0.17100
H1537       H  0.09903835  0.49151531  0.55637228     0.17000
C1538       C  0.01641460  0.53408204  0.58562503     0.30900
C1539       C  0.01575324  0.53414637  0.66434652     0.30900
C1540       C  0.99148959  0.50595240  0.60462410    -0.05300
C1541       C  0.05283996  0.53209973  0.60665552    -0.06100
C1542       C  0.00016503  0.56893044  0.60539348    -0.06000
C1543       C  0.99130583  0.50596629  0.64356229    -0.05300
C1544       C  0.05239791  0.53251853  0.64511232    -0.06100
C1545       C  0.99981270  0.56857647  0.64441833    -0.06000
C1546       C  0.95534711  0.49770558  0.65222974    -0.31400
N1547       N  0.93527917  0.48918007  0.62275455     0.15100
C1548       C  0.95548118  0.49772792  0.59429107    -0.31400
H1549       H  0.94301862  0.50151707  0.56804351     0.17100
C1550       C  0.08420818  0.54991219  0.65598798    -0.30300
N1551       N  0.10541572  0.55637920  0.62750876     0.13900
C1552       C  0.08541157  0.54844881  0.59760673    -0.30300
C1553       C  0.98320918  0.60038498  0.65492392    -0.30600
N1554       N  0.97519530  0.62096102  0.62576579     0.14400
H1555       H  0.97827440  0.60883642  0.68210811     0.17000
C1556       C  0.98399193  0.60171723  0.59558516    -0.30600
H1557       H  0.97963801  0.61167810  0.56858038     0.17000
H1558       H  0.09420608  0.55486178  0.57076577     0.17000
H1559       H  0.94280158  0.50149707  0.67804831     0.17100
H1560       H  0.09212545  0.55687520  0.68337987     0.17000
O1561       O  0.90945688  0.94095221  0.54108709    -0.70900
O1562       O  0.01373059  0.95353316  0.54003091    -0.71100
O1563       O  0.95589070  0.99936203  0.53670004    -0.71000
O1564       O  0.96770346  0.89678215  0.54239698    -0.71000
O1565       O  0.97536995  0.89475108  0.73499028    -0.70900
O1566       O  0.94543638  0.99304510  0.72962198    -0.71000
O1567       O  0.01085509  0.95778122  0.73225459    -0.70900
O1568       O  0.91014896  0.92770202  0.73447440    -0.71100
V1569       V  0.96148734  0.94784276  0.53920014     1.35200
V1570       V  0.96025372  0.94357789  0.73378138     1.35200
C1571       C  0.89280346  0.92770287  0.76380583     0.78300
C1572       C  0.03029475  0.95826694  0.76098022     0.78400
C1573       C  0.94723743  0.01387150  0.50689524     0.78300
C1574       C  0.97730177  0.87958870  0.51449198     0.78200
O1575       O  0.89499514  0.97289611  0.60936013    -0.70900
O1576       O  0.99937884  0.96296684  0.60859532    -0.71100
O1577       O  0.94065149  0.91575291  0.61071195    -0.71000
O1578       O  0.95323448  0.01783097  0.60630266    -0.71000
O1579       O  0.94617832  0.02342800  0.66377606    -0.70900
O1580       O  0.94965536  0.91847913  0.66849945    -0.71000
O1581       O  0.00072780  0.97401444  0.66591738    -0.70900
O1582       O  0.89701018  0.97009911  0.66764204    -0.71100
V1583       V  0.94713979  0.96726905  0.60980508     1.35200
V1584       V  0.94868142  0.97111082  0.66558614     1.35200
C1585       C  0.87819542  0.97277758  0.63889159     0.78300
C1586       C  0.01793181  0.97014186  0.63700826     0.78400
C1587       C  0.94366930  0.89916180  0.64022248     0.78300
C1588       C  0.94747953  0.03810220  0.63312978     0.78200
O1589       O  0.50388990  0.42467639  0.52023878    -0.70900
O1590       O  0.40405400  0.45445716  0.51879002    -0.71100
O1591       O  0.43847922  0.39032328  0.51774227    -0.71000
O1592       O  0.46863085  0.49052361  0.51958037    -0.71000
O1593       O  0.45858921  0.49104191  0.71366906    -0.70900
O1594       O  0.44509609  0.38864170  0.71059169    -0.71000
O1595       O  0.40025397  0.44652833  0.71227899    -0.70900
O1596       O  0.50418387  0.43284411  0.71373932    -0.71100
V1597       V  0.45406814  0.44001218  0.51822996     1.35200
V1598       V  0.45218736  0.43996659  0.71348992     1.35200
C1599       C  0.52021771  0.42359107  0.74283054     0.78300
C1600       C  0.38334168  0.45327487  0.74116715     0.78400
C1601       C  0.43855801  0.37177295  0.48870818     0.78300
C1602       C  0.46603697  0.50828424  0.49052489     0.78200
O1603       O  0.41870997  0.39294925  0.58453546    -0.70900
O1604       O  0.43664816  0.49695172  0.58692389    -0.71100
O1605       O  0.47837252  0.43772428  0.58542901    -0.71000
O1606       O  0.37573074  0.45322122  0.58667607    -0.71000
O1607       O  0.37909053  0.45732362  0.64490129    -0.70900
O1608       O  0.47894156  0.43130355  0.64335303    -0.71000
O1609       O  0.44240119  0.49396912  0.64484866    -0.70900
O1610       O  0.41545493  0.39268297  0.64255822    -0.71100
V1611       V  0.42710574  0.44491072  0.58688316     1.35200
V1612       V  0.42869081  0.44364127  0.64281517     1.35200
C1613       C  0.41415276  0.37484917  0.61304454     0.78300
C1614       C  0.44573089  0.51260284  0.61650287     0.78400
C1615       C  0.49635531  0.43315947  0.61440295     0.78300
C1616       C  0.36072706  0.46088961  0.61617144     0.78200
C1617       C  0.19039364  0.50480940  0.64379504    -0.04600
C1618       C  0.21805357  0.52853928  0.63150211     0.09600
C1619       C  0.20726264  0.56409230  0.62021797    -0.02000
C1620       C  0.17018855  0.57459939  0.62207339    -0.00200
C1621       C  0.14353098  0.54842968  0.62935235    -0.03800
C1622       C  0.15390968  0.51284988  0.63727449     0.03200
C1623       C  0.25568303  0.51299657  0.62533264     0.10000
C1624       C  0.23259515  0.58929827  0.60429605     0.35900
C1625       C  0.12736291  0.48334874  0.63462787     0.39300
C1626       C  0.25889663  0.47925815  0.60623844    -0.04200
C1627       C  0.29273083  0.46150460  0.60370951     0.03000
C1628       C  0.32448100  0.47843692  0.61751653    -0.03800
C1629       C  0.32221135  0.51398447  0.63200247     0.00000
C1630       C  0.28822007  0.53055298  0.63761630    -0.02600
C1631       C  0.22719018  0.46294440  0.58839357     0.36700
C1632       C  0.35504941  0.53551921  0.63730052     0.40300
C1633       C  0.29428821  0.42615246  0.58633863     0.39400
C1634       C  0.28816434  0.56599343  0.65517534     0.36300
C1635       C  0.19784455  0.46941598  0.65853054     0.37000
C1636       C  0.15908624  0.61158637  0.61491586     0.40300
N1637       N  0.29350527  0.39801727  0.57210969    -0.37800
N1638       N  0.20056880  0.45012345  0.57676508    -0.39400
N1639       N  0.38045644  0.55406756  0.64033768    -0.37100
N1640       N  0.28983337  0.59457166  0.66861739    -0.39500
N1641       N  0.25224143  0.61000745  0.59148510    -0.39300
N1642       N  0.15036694  0.64129938  0.60971917    -0.36900
N1643       N  0.10672136  0.45950489  0.63185686    -0.38000
N1644       N  0.19968855  0.43982507  0.66828495    -0.39600
C1645       C  0.92404502  0.79665780  0.65179369    -0.04600
C1646       C  0.95650281  0.77975554  0.63879541     0.09600
C1647       C  0.98355627  0.80414426  0.62531180    -0.02000
C1648       C  0.97873876  0.84235260  0.62722056    -0.00200
C1649       C  0.94671218  0.85805506  0.64007338    -0.03800
C1650       C  0.91753803  0.83411765  0.64647071     0.03200
C1651       C  0.96060099  0.73775525  0.63617445     0.10000
C1652       C  0.01608352  0.79151072  0.60769732     0.35900
C1653       C  0.88116728  0.84365277  0.63425058     0.39300
C1654       C  0.93092590  0.71427404  0.62477678    -0.04200
C1655       C  0.93544718  0.67581711  0.62241944     0.03000
C1656       C  0.96990379  0.66004699  0.62786823    -0.03800
C1657       C  0.99956589  0.68265488  0.63728643     0.00000
C1658       C  0.99462842  0.72024943  0.64396439    -0.02600
C1659       C  0.89700960  0.72904286  0.61040634     0.36700
C1660       C  0.03575044  0.66682450  0.63964847     0.40300
C1661       C  0.90480574  0.65225933  0.61322919     0.39400
C1662       C  0.02483037  0.73943254  0.66111119     0.36300
C1663       C  0.89616033  0.77688765  0.67071570     0.37000
C1664       C  0.00312823  0.86625041  0.60904761     0.40300
N1665       N  0.88027568  0.63342639  0.60604843    -0.37800
N1666       N  0.87007369  0.74043389  0.59835210    -0.39400
N1667       N  0.06460978  0.65420310  0.64091288    -0.37100
N1668       N  0.05025514  0.75364788  0.67370416    -0.39500
N1669       N  0.04300817  0.78291388  0.59433258    -0.39300
N1670       N  0.01910490  0.88791203  0.59364939    -0.36900
N1671       N  0.85225685  0.84937876  0.62255213    -0.38000
N1672       N  0.87331321  0.76190069  0.68584099    -0.39600
C1673       C  0.28113886  0.43457766  0.72184939    -0.04600
C1674       C  0.26335847  0.46120139  0.74358233     0.09600
C1675       C  0.28839656  0.48641846  0.51131863    -0.02000
C1676       C  0.32679761  0.48269720  0.51153470    -0.00200
C1677       C  0.34212684  0.45698273  0.74148254    -0.03800
C1678       C  0.31980690  0.43346485  0.72036944     0.03200
C1679       C  0.22173791  0.46641657  0.74361995     0.10000
C1680       C  0.27328147  0.51524874  0.53314908     0.35900
C1681       C  0.33734793  0.40545208  0.69974308     0.39300
C1682       C  0.19943915  0.43907669  0.49995733    -0.04200
C1683       C  0.16103149  0.44494509  0.50225259     0.03000
C1684       C  0.14480544  0.48006792  0.74945391    -0.03800
C1685       C  0.16891125  0.50807994  0.74035996     0.00000
C1686       C  0.20645144  0.50122813  0.73624178    -0.02600
C1687       C  0.21391178  0.40390817  0.50998650     0.36700
C1688       C  0.15489869  0.54466358  0.73590865     0.40300
C1689       C  0.13665456  0.41524656  0.51048918     0.39400
C1690       C  0.22892529  0.53109970  0.72478638     0.36300
C1691       C  0.26106376  0.40682835  0.70171147     0.37000
C1692       C  0.34827863  0.50549237  0.53542607     0.40300
N1693       N  0.11714019  0.39147919  0.51697800    -0.37800
N1694       N  0.22518049  0.37576041  0.51814832    -0.39400
N1695       N  0.14410422  0.57398311  0.73258806    -0.37100
N1696       N  0.24587983  0.55653285  0.71799855    -0.39500
N1697       N  0.26178804  0.53958952  0.54921001    -0.39300
N1698       N  0.36431690  0.52302060  0.55624261    -0.36900
N1699       N  0.35371600  0.38318680  0.68525730    -0.38000
N1700       N  0.24686903  0.38321329  0.68586822    -0.39600
C1701       C  0.04135176  0.79981032  0.75003730    -0.04600
C1702       C  0.01908034  0.77070760  0.51384885     0.09600
C1703       C  0.98600864  0.77887987  0.53148337    -0.02000
C1704       C  0.97274855  0.81453875  0.53290289    -0.00200
C1705       C  0.99217983  0.84254234  0.51643738    -0.03800
C1706       C  0.02662984  0.83499466  0.75030325     0.03200
C1707       C  0.02889397  0.73164824  0.50702622     0.10000
C1708       C  0.96425235  0.74979526  0.54586092     0.35900
C1709       C  0.04699736  0.86429421  0.73448658     0.39300
C1710       C  0.06208751  0.71623796  0.52007096    -0.04200
C1711       C  0.06855971  0.67874568  0.51487420     0.03000
C1712       C  0.04019284  0.65613174  0.50199083    -0.03800
C1713       C  0.00733981  0.67162359  0.74185174     0.00000
C1714       C  0.00439080  0.70904363  0.73919447    -0.02600
C1715       C  0.08858242  0.73767970  0.54068333     0.36700
C1716       C  0.97445061  0.64942316  0.73952664     0.40300
C1717       C  0.10360555  0.66297581  0.52391438     0.39400
C1718       C  0.97094049  0.72330731  0.72383944     0.36300
C1719       C  0.07722594  0.79413916  0.73514271     0.37000
C1720       C  0.93815570  0.82163620  0.54965357     0.40300
N1721       N  0.13175855  0.65034147  0.53054750    -0.37800
N1722       N  0.11012299  0.75438916  0.55712878    -0.39400
N1723       N  0.94779406  0.63239640  0.73885913    -0.37100
N1724       N  0.94285160  0.73354993  0.71396452    -0.39500
N1725       N  0.94700585  0.72454359  0.55261921    -0.39300
N1726       N  0.91012794  0.82640849  0.56258953    -0.36900
N1727       N  0.06373361  0.88778533  0.72258510    -0.38000
N1728       N  0.10604126  0.79023193  0.72347789    -0.39600
C1729       C  0.49232959  0.68998088  0.63949318    -0.04600
C1730       C  0.51564537  0.65951003  0.63316586     0.09600
C1731       C  0.55284086  0.66760745  0.62529203    -0.02000
C1732       C  0.56550359  0.70440207  0.62403719    -0.00200
C1733       C  0.54090220  0.73355899  0.62714010    -0.03800
C1734       C  0.50417809  0.72585124  0.63336464     0.03200
C1735       C  0.49924671  0.62088324  0.62863314     0.10000
C1736       C  0.57804430  0.63867802  0.61670105     0.35900
C1737       C  0.47774245  0.75512599  0.63089036     0.39300
C1738       C  0.47047439  0.61502423  0.60312169    -0.04200
C1739       C  0.45318490  0.58061967  0.59798579     0.03000
C1740       C  0.46363359  0.55032916  0.61904398    -0.03800
C1741       C  0.49403195  0.55550786  0.64287203     0.00000
C1742       C  0.51170404  0.58982863  0.64770383    -0.02600
C1743       C  0.45829794  0.64554365  0.58210850     0.36700
C1744       C  0.50964206  0.52392223  0.65976456     0.40300
C1745       C  0.42470789  0.57844973  0.57077047     0.39400
C1746       C  0.54373344  0.59120614  0.67108869     0.36300
C1747       C  0.45461319  0.68610731  0.64939507     0.37000
C1748       C  0.60365800  0.71250205  0.61865716     0.40300
N1749       N  0.40296966  0.58204733  0.54813212    -0.39800
N1750       N  0.44948342  0.67221218  0.56853786    -0.39400
N1751       N  0.52094370  0.49739123  0.67175677    -0.37100
N1752       N  0.56987258  0.58919319  0.68897046    -0.39500
N1753       N  0.59833954  0.61582455  0.60940464    -0.39300
N1754       N  0.63419696  0.71908052  0.61457504    -0.36900
N1755       N  0.45634644  0.77804002  0.62817982    -0.38000
N1756       N  0.42386839  0.68797059  0.65536306    -0.39600
C1757       C  0.78400531  0.93260564  0.65247189    -0.04600
C1758       C  0.76008237  0.95827402  0.63598500     0.09600
C1759       C  0.77597175  0.99146277  0.62391424    -0.02000
C1760       C  0.81399643  0.99795709  0.62812760    -0.00200
C1761       C  0.83739662  0.97027463  0.63997698    -0.03800
C1762       C  0.82176358  0.93898446  0.65413204     0.03200
C1763       C  0.71911642  0.95029274  0.63222218     0.10000
C1764       C  0.75427683  0.01877664  0.60560382     0.35900
C1765       C  0.84546208  0.91371017  0.67159587     0.39300
C1766       C  0.69233134  0.97497448  0.64536442    -0.04200
C1767       C  0.65460724  0.96636017  0.64222203     0.03000
C1768       C  0.64309712  0.93217005  0.62876683    -0.03800
C1769       C  0.66942727  0.90657628  0.61867056     0.00000
C1770       C  0.70649261  0.91645317  0.61738507    -0.02600
C1771       C  0.70301479  0.00834290  0.66409500     0.36700
C1772       C  0.65897396  0.86872233  0.61394827     0.40300
C1773       C  0.62741904  0.99206982  0.65416114     0.39400
C1774       C  0.73153941  0.89069074  0.60171038     0.36300
C1775       C  0.77097126  0.89852560  0.66683751     0.37000
C1776       C  0.82748762  0.03476989  0.62748551     0.40300
N1777       N  0.60573726  0.01259858  0.66381982    -0.37800
N1778       N  0.71132740  0.03499784  0.67910857    -0.39400
N1779       N  0.65145027  0.83816312  0.61169310    -0.37100
N1780       N  0.75244636  0.86983633  0.59124980    -0.39500
N1781       N  0.73753443  0.04083487  0.59074188    -0.39300
N1782       N  0.83678386  0.06476220  0.62972164    -0.36900
N1783       N  0.86683660  0.89527978  0.68495215    -0.38000
N1784       N  0.76115906  0.87042041  0.67657503    -0.39600
C1785       C  0.49539716  0.60785985  0.50428323    -0.04600
C1786       C  0.46666317  0.62775946  0.48700594     0.09600
C1787       C  0.44008035  0.60534863  0.71881208    -0.02000
C1788       C  0.43784532  0.56766439  0.72580017    -0.00200
C1789       C  0.46702746  0.54912580  0.48937464    -0.03800
C1790       C  0.49746536  0.56952277  0.50120560     0.03200
C1791       C  0.46754507  0.66988698  0.48678114     0.10000
C1792       C  0.41259740  0.61950477  0.69435379     0.35900
C1793       C  0.53223725  0.55183906  0.50653020     0.39300
C1794       C  0.50271709  0.68861430  0.72965234    -0.04200
C1795       C  0.50550750  0.72614078  0.73754145     0.03000
C1796       C  0.47349782  0.74778394  0.49505054    -0.03800
C1797       C  0.43978747  0.73035001  0.49957256     0.00000
C1798       C  0.43666216  0.69175343  0.49633131    -0.02600
C1799       C  0.53569986  0.67141894  0.71733390     0.36700
C1800       C  0.40898626  0.75230141  0.51016701     0.40300
C1801       C  0.54115013  0.74333438  0.74169138     0.39400
C1802       C  0.40254180  0.67530087  0.50705215     0.36300
C1803       C  0.52249861  0.62605158  0.52694295     0.37000
C1804       C  0.40350131  0.54864269  0.71959667     0.40300
N1805       N  0.56963056  0.75666570  0.74575249    -0.37800
N1806       N  0.56409996  0.66103293  0.70909700    -0.39400
N1807       N  0.38464740  0.76999970  0.51906023    -0.37100
N1808       N  0.37527046  0.66285653  0.51636461    -0.39500
N1809       N  0.38867044  0.62760225  0.67530178    -0.39300
N1810       N  0.37558174  0.53417580  0.71600018    -0.36900
N1811       N  0.56058110  0.53847385  0.50989657    -0.38000
N1812       N  0.54453425  0.64093721  0.54432827    -0.39600
C1813       C  0.81087883  0.86164360  0.75174608    -0.04600
C1814       C  0.78081435  0.88278507  0.76340358     0.09600
C1815       C  0.78898520  0.92013795  0.52897798    -0.02000
C1816       C  0.82456073  0.93501540  0.52685520    -0.00200
C1817       C  0.85447113  0.91188092  0.76582569    -0.03800
C1818       C  0.84733944  0.87505148  0.75569583     0.03200
C1819       C  0.74065647  0.87083253  0.75741225     0.10000
C1820       C  0.76067477  0.94238379  0.54459129     0.35900
C1821       C  0.87722638  0.85194207  0.74483369     0.39300
C1822       C  0.72589183  0.83997804  0.51758399    -0.04200
C1823       C  0.68814462  0.83137414  0.51343858     0.03000
C1824       C  0.66388060  0.85427281  0.75307121    -0.03800
C1825       C  0.67716880  0.88812810  0.74201858     0.00000
C1826       C  0.71493605  0.89520122  0.74132980    -0.02600
C1827       C  0.74954181  0.81360904  0.53484595     0.36700
C1828       C  0.65184261  0.91776280  0.73626810     0.40300
C1829       C  0.67461761  0.79552166  0.52211477     0.39400
C1830       C  0.72654601  0.92931264  0.72600058     0.36300
C1831       C  0.80475584  0.82727398  0.73296045     0.37000
C1832       C  0.82772581  0.97397999  0.53075350     0.40300
N1833       N  0.66368739  0.76684353  0.52875546    -0.37800
N1834       N  0.76813408  0.79238929  0.54876218    -0.39400
N1835       N  0.63248209  0.94236034  0.73331531    -0.37100
N1836       N  0.73616328  0.95741418  0.71615439    -0.39500
N1837       N  0.73698305  0.96059393  0.55403997    -0.39300
N1838       N  0.82473763  0.00522948  0.53241422    -0.36900
N1839       N  0.90051093  0.83388693  0.73417096    -0.38000
N1840       N  0.80021334  0.79984933  0.71783388    -0.39600
C1841       C  0.43470524  0.27270530  0.59698562    -0.04600
C1842       C  0.41057423  0.25480282  0.62071368     0.09600
C1843       C  0.38313109  0.27727030  0.63643796    -0.02000
C1844       C  0.38129508  0.31522868  0.62899665    -0.00200
C1845       C  0.41024125  0.33340887  0.61234674    -0.03800
C1846       C  0.43549104  0.31116351  0.59448325     0.03200
C1847       C  0.41386564  0.21310789  0.62568160     0.10000
C1848       C  0.35386949  0.26209850  0.65693449     0.35900
C1849       C  0.46054123  0.32729117  0.57042086     0.39300
C1850       C  0.44931777  0.19747458  0.63152131    -0.04200
C1851       C  0.45487723  0.15928563  0.62898455     0.03000
C1852       C  0.42494248  0.13545057  0.62635073    -0.03800
C1853       C  0.38961295  0.14993404  0.62427625     0.00000
C1854       C  0.38383800  0.18785269  0.62206939    -0.02600
C1855       C  0.48023425  0.22027233  0.64220173     0.36700
C1856       C  0.35851935  0.12538589  0.62358035     0.40300
C1857       C  0.49124622  0.14412909  0.63097223     0.39400
C1858       C  0.34635392  0.19828522  0.61502116     0.36300
C1859       C  0.45864645  0.25164002  0.57407801     0.37000
C1860       C  0.34607985  0.33274188  0.62940208     0.40300
N1861       N  0.52025090  0.13185786  0.63237966    -0.37800
N1862       N  0.50508870  0.23835744  0.65025889    -0.39400
N1863       N  0.33271524  0.10719225  0.62307911    -0.37100
N1864       N  0.31573963  0.20390953  0.60912679    -0.39500
N1865       N  0.32884566  0.25089418  0.67184615    -0.39300
N1866       N  0.31721051  0.34535432  0.62854426    -0.36900
N1867       N  0.47981848  0.33866053  0.54924377    -0.38000
N1868       N  0.47878892  0.23471286  0.55718609    -0.39600
C1869       C  0.18795022  0.01388142  0.60063850    -0.04600
C1870       C  0.17461325  0.00668970  0.63512640     0.09600
C1871       C  0.20117130  0.00654598  0.66316679    -0.02000
C1872       C  0.23039293  0.03116822  0.65843889    -0.00200
C1873       C  0.24826610  0.02935617  0.62509809    -0.03800
C1874       C  0.22643570  0.01519826  0.59581486     0.03200
C1875       C  0.13454968  0.99691135  0.63949309     0.10000
C1876       C  0.21632099  0.97076114  0.66771041     0.35900
C1877       C  0.24059430  0.98282710  0.57936953     0.39300
C1878       C  0.12259602  0.96037578  0.64283433    -0.04200
C1879       C  0.08488279  0.95143007  0.64214321     0.03000
C1880       C  0.05814489  0.97834981  0.63627312    -0.03800
C1881       C  0.07003475  0.01466902  0.63197497     0.00000
C1882       C  0.10752400  0.02398700  0.63424710    -0.02600
C1883       C  0.14832827  0.93074435  0.64501314     0.36700
C1884       C  0.04385441  0.04321755  0.62530954     0.40300
C1885       C  0.07470535  0.91377840  0.64645497     0.39400
C1886       C  0.11826443  0.06187939  0.63048421     0.36300
C1887       C  0.16179903  0.02323713  0.57305794     0.37000
C1888       C  0.23243340  0.06476911  0.67864600     0.40300
N1889       N  0.07007793  0.88285407  0.64962352    -0.37800
N1890       N  0.16666182  0.90523933  0.64638212    -0.39400
N1891       N  0.02436820  0.06721514  0.61982676    -0.37100
N1892       N  0.12678943  0.09203811  0.62757659    -0.39500
N1893       N  0.23094622  0.94292682  0.66777899    -0.39300
N1894       N  0.23416542  0.09237394  0.69392535    -0.36900
N1895       N  0.25107517  0.95480452  0.56977571    -0.38000
N1896       N  0.13777629  0.03268567  0.55480293    -0.39600
C1897       C  0.37653126  0.20871853  0.52269612    -0.04600
C1898       C  0.38377091  0.22139007  0.48785990     0.09600
C1899       C  0.38173828  0.19393042  0.70914850    -0.02000
C1900       C  0.35645632  0.16584842  0.71585490    -0.00200
C1901       C  0.35876583  0.14893786  0.49989676    -0.03800
C1902       C  0.37509817  0.17055643  0.52820450     0.03200
C1903       C  0.39765474  0.26008230  0.48311690     0.10000
C1904       C  0.41658585  0.17674256  0.70427292     0.35900
C1905       C  0.40940125  0.15702144  0.54174630     0.39300
C1906       C  0.43402591  0.26848473  0.72703712    -0.04200
C1907       C  0.44634748  0.30510056  0.72755988     0.03000
C1908       C  0.42536846  0.33313059  0.48739480    -0.03800
C1909       C  0.38935794  0.32506299  0.49710139     0.00000
C1910       C  0.37452229  0.29002997  0.49105467    -0.02600
C1911       C  0.46146820  0.24036172  0.72688760     0.36700
C1912       C  0.36848580  0.35205629  0.51635883     0.40300
C1913       C  0.48509496  0.31242367  0.72515962     0.39400
C1914       C  0.33540084  0.28516961  0.49457095     0.36300
C1915       C  0.36415088  0.23442678  0.54894022     0.37000
C1916       C  0.32313559  0.16193039  0.69501725     0.40300
N1917       N  0.51637944  0.31662079  0.72498317    -0.37800
N1918       N  0.48522545  0.21973701  0.72789195    -0.39400
N1919       N  0.35267549  0.37370550  0.53250572    -0.37100
N1920       N  0.30420337  0.28172821  0.49763153    -0.39500
N1921       N  0.44327930  0.16003757  0.70449537    -0.39300
N1922       N  0.29581384  0.15883231  0.67908203    -0.36900
N1923       N  0.43874576  0.14781233  0.54896342    -0.38000
N1924       N  0.35201571  0.25747565  0.56643252    -0.39600
C1925       C  0.13414204  0.95012252  0.52804253    -0.04600
C1926       C  0.14891103  0.97570594  0.75491091     0.09600
C1927       C  0.12369238  0.99818717  0.73585897    -0.02000
C1928       C  0.08540470  0.99303310  0.73910914    -0.00200
C1929       C  0.07110576  0.96494153  0.76034696    -0.03800
C1930       C  0.09613012  0.94433694  0.53047792     0.03200
C1931       C  0.19017124  0.97446004  0.74850870     0.10000
C1932       C  0.13577256  0.02986847  0.71691950     0.35900
C1933       C  0.08529207  0.91232226  0.54963507     0.39300
C1934       C  0.20710218  0.93972122  0.74331739    -0.04200
C1935       C  0.24559966  0.93596215  0.74495143     0.03000
C1936       C  0.26804159  0.96692070  0.74657518    -0.03800
C1937       C  0.25105970  0.00102482  0.49733681     0.00000
C1938       C  0.21292000  0.00451165  0.49966319    -0.02600
C1939       C  0.18510077  0.90774204  0.73444186     0.36700
C1940       C  0.27354153  0.03340051  0.50028396     0.40300
C1941       C  0.26225617  0.90033429  0.74538676     0.39400
C1942       C  0.19972477  0.04070415  0.50782566     0.36300
C1943       C  0.15876694  0.93020574  0.55179187     0.37000
C1944       C  0.06039080  0.01789276  0.72172449     0.40300
N1945       N  0.27555185  0.87186411  0.74634024    -0.37800
N1946       N  0.16759259  0.88222973  0.72750615    -0.39400
N1947       N  0.28916345  0.06067809  0.50281871    -0.37100
N1948       N  0.19173283  0.07049212  0.51434641    -0.39500
N1949       N  0.14405689  0.05685259  0.70354174    -0.39300
N1950       N  0.04002572  0.03775893  0.70842272    -0.36900
N1951       N  0.08230070  0.88442874  0.56332136    -0.38000
N1952       N  0.17869279  0.91347621  0.56948426    -0.39600
C1953       C  0.93366701  0.14151834  0.63849064    -0.04600
C1954       C  0.90483629  0.14587874  0.61253678     0.09600
C1955       C  0.89303634  0.11506239  0.59257150    -0.02000
C1956       C  0.90942073  0.08128135  0.59834536    -0.00200
C1957       C  0.93561233  0.07615926  0.62617868    -0.03800
C1958       C  0.94803614  0.10669340  0.64614239     0.03200
C1959       C  0.88726307  0.18248746  0.60747463     0.10000
C1960       C  0.86184886  0.11550568  0.56815796     0.35900
C1961       C  0.97638472  0.10301794  0.67344617     0.39300
C1962       C  0.90964952  0.21319689  0.60104409    -0.04200
C1963       C  0.89743744  0.24776251  0.61014370     0.03000
C1964       C  0.86018788  0.25371359  0.61552663    -0.03800
C1965       C  0.83587129  0.22442700  0.61610703     0.00000
C1966       C  0.84949187  0.18860373  0.61457627    -0.02600
C1967       C  0.94626913  0.21101575  0.58737122     0.36700
C1968       C  0.79723556  0.23152205  0.61963556     0.40300
C1969       C  0.92377864  0.27720494  0.61529584     0.39400
C1970       C  0.82419492  0.15927933  0.62147301     0.36300
C1971       C  0.94895537  0.17307881  0.65697588     0.37000
C1972       C  0.89706391  0.05079311  0.57646949     0.40300
N1973       N  0.94513031  0.30025835  0.61941442    -0.37800
N1974       N  0.97581480  0.21459861  0.57757625    -0.39400
N1975       N  0.76636990  0.23727902  0.62217974    -0.37100
N1976       N  0.80274019  0.13690066  0.62686985    -0.39500
N1977       N  0.83587820  0.11050970  0.55059153    -0.39300
N1978       N  0.88794403  0.02614622  0.55907544    -0.36900
N1979       N  0.99934909  0.10126190  0.69514924    -0.38000
N1980       N  0.96144265  0.19965826  0.66883248    -0.39600
C1981       C  0.67991833  0.45647757  0.61983946    -0.04600
C1982       C  0.65738198  0.42563803  0.61085387     0.09600
C1983       C  0.67570920  0.39253319  0.60232490    -0.02000
C1984       C  0.71404006  0.38944812  0.60614951    -0.00200
C1985       C  0.73576172  0.41982439  0.61541051    -0.03800
C1986       C  0.71869384  0.45349403  0.62135664     0.03200
C1987       C  0.61536660  0.42767264  0.61150655     0.10000
C1988       C  0.65605757  0.36096191  0.58887269     0.35900
C1989       C  0.74133424  0.48500287  0.62947752     0.39300
C1990       C  0.59547158  0.45527519  0.59289259    -0.04200
C1991       C  0.55715618  0.45793962  0.59587649     0.03000
C1992       C  0.53708702  0.43185960  0.61458443    -0.03800
C1993       C  0.55588859  0.40468073  0.63317843     0.00000
C1994       C  0.59434512  0.40232529  0.63160335    -0.02600
C1995       C  0.61307991  0.48121931  0.56977848     0.36700
C1996       C  0.53479477  0.37599533  0.64944311     0.40300
C1997       C  0.53836507  0.48957157  0.58240482     0.39400
C1998       C  0.61092117  0.37156219  0.64878245     0.36300
C1999       C  0.66371205  0.49075172  0.63075652     0.37000
C2000       C  0.73144720  0.35441161  0.60104567     0.40300
N2001       N  0.52283695  0.51522360  0.57337011    -0.37800
N2002       N  0.62546266  0.50324226  0.55154835    -0.39400
N2003       N  0.51674640  0.35286955  0.66018858    -0.37100
N2004       N  0.62277316  0.34536440  0.66100417    -0.39500
N2005       N  0.64171193  0.33411463  0.58036306    -0.39300
N2006       N  0.74506368  0.32632412  0.59723970    -0.36900
N2007       N  0.75953154  0.51017537  0.63577769    -0.38000
N2008       N  0.65100274  0.51808949  0.63974344    -0.39600
C2009       C  0.95966574  0.19771164  0.74661688    -0.04600
C2010       C  0.92509601  0.17383068  0.50208770     0.09600
C2011       C  0.89045785  0.19216884  0.50296042    -0.02000
C2012       C  0.88812071  0.23048577  0.50010137    -0.00200
C2013       C  0.91942985  0.25207283  0.49719833    -0.03800
C2014       C  0.95575137  0.23630847  0.74472018     0.03200
C2015       C  0.92921483  0.13191736  0.50429949     0.10000
C2016       C  0.85569876  0.17369708  0.50465574     0.35900
C2017       C  0.98701318  0.25951120  0.73864082     0.39300
C2018       C  0.95727351  0.11536916  0.52601597    -0.04200
C2019       C  0.96543546  0.07798753  0.52240394     0.03000
C2020       C  0.94130165  0.05413156  0.50430491    -0.03800
C2021       C  0.91330018  0.06978062  0.73546146     0.00000
C2022       C  0.91033232  0.10821126  0.73262398    -0.02600
C2023       C  0.97832810  0.13460550  0.55354445     0.36700
C2024       C  0.88469620  0.04656923  0.72030956     0.40300
C2025       C  0.00052782  0.06438396  0.53493171     0.39400
C2026       C  0.88466165  0.12181643  0.70616042     0.36300
C2027       C  0.99535963  0.18260866  0.73951912     0.37000
C2028       C  0.85282212  0.24847623  0.49958608     0.40300
N2029       N  0.02896893  0.05354460  0.54337658    -0.37800
N2030       N  0.99767572  0.14551760  0.57624273    -0.39400
N2031       N  0.86113888  0.02847354  0.70900684    -0.37100
N2032       N  0.86332745  0.13185080  0.68526671    -0.39500
N2033       N  0.82593911  0.16301495  0.50320533    -0.39300
N2034       N  0.82485464  0.26295100  0.49903182    -0.36900
N2035       N  0.01194141  0.27808760  0.73365696    -0.38000
N2036       N  0.02410912  0.17132994  0.73366137    -0.39600
C2037       C  0.68217668  0.33081064  0.72882669    -0.04600
C2038       C  0.66768948  0.36462921  0.74151602     0.09600
C2039       C  0.69328852  0.38775558  0.50668107    -0.02000
C2040       C  0.73023640  0.38402509  0.50091932    -0.00200
C2041       C  0.74363950  0.35294102  0.74209890    -0.03800
C2042       C  0.72023215  0.32465128  0.73100807     0.03200
C2043       C  0.62855911  0.37639619  0.73589955     0.10000
C2044       C  0.68189341  0.42126108  0.52365306     0.35900
C2045       C  0.73586712  0.29032844  0.71972443     0.39300
C2046       C  0.60061826  0.35675657  0.50294048    -0.04200
C2047       C  0.56895505  0.37658016  0.51037804     0.03000
C2048       C  0.55879755  0.40997009  0.74311672    -0.03800
C2049       C  0.58655309  0.42735878  0.72377574     0.00000
C2050       C  0.62110334  0.41091209  0.72050673    -0.02600
C2051       C  0.60324150  0.31953043  0.51524410     0.36700
C2052       C  0.58344598  0.46511254  0.71396861     0.40300
C2053       C  0.55208443  0.36768709  0.54364206     0.39400
C2054       C  0.65036243  0.43115219  0.70413112     0.36300
C2055       C  0.65950333  0.30239648  0.71281637     0.37000
C2056       C  0.75324679  0.41635202  0.50022602     0.40300
N2057       N  0.54382223  0.35853856  0.57198734    -0.37800
N2058       N  0.60412145  0.28974845  0.52503248    -0.39400
N2059       N  0.58533086  0.49559070  0.70688143    -0.37100
N2060       N  0.67545818  0.44756897  0.69513521    -0.39500
N2061       N  0.67583749  0.44967439  0.53548890    -0.39300
N2062       N  0.77105390  0.44237212  0.49890413    -0.36900
N2063       N  0.74859333  0.26304562  0.71064839    -0.38000
N2064       N  0.64238495  0.27889426  0.69995345    -0.39600
C2065       C  0.86783590  0.37454855  0.95620597     0.30900
C2066       C  0.86947895  0.37575945  0.78434095     0.30900
C2067       C  0.89120602  0.40386578  0.97667321    -0.05300
C2068       C  0.83101973  0.37514899  0.97535902    -0.06100
C2069       C  0.88527279  0.34068484  0.97662546    -0.06000
C2070       C  0.89300506  0.40474531  0.76528014    -0.05300
C2071       C  0.83315959  0.37593155  0.76327393    -0.06100
C2072       C  0.88734540  0.34203911  0.76459215    -0.06000
C2073       C  0.92875404  0.41343723  0.77573560    -0.31400
N2074       N  0.94693764  0.42129107  0.99773878     0.15100
C2075       C  0.92714022  0.41236143  0.96819480    -0.31400
H2076       H  0.93987642  0.40834642  0.94248717     0.17100
C2077       C  0.80235892  0.35682944  0.77214524    -0.30300
N2078       N  0.78223452  0.34879846  0.74241618     0.13900
C2079       C  0.79988307  0.35613666  0.96468087    -0.30300
C2080       C  0.90682128  0.31194253  0.77536443    -0.30600
N2081       N  0.91640607  0.29171438  0.74624958     0.14400
H2082       H  0.91226849  0.30401727  0.80259431     0.17000
C2083       C  0.90362259  0.30875287  0.96769424    -0.30600
H2084       H  0.90924121  0.29862096  0.94094638     0.17000
H2085       H  0.79206268  0.34830400  0.93740994     0.17000
H2086       H  0.94106635  0.40993470  0.80210276     0.17100
H2087       H  0.79474944  0.34899050  0.79887763     0.17000
C2088       C  0.86429970  0.37992538  0.83084452     0.30900
C2089       C  0.86357573  0.37932352  0.90975125     0.30900
C2090       C  0.89105078  0.40559183  0.85187434    -0.05300
C2091       C  0.82870944  0.39388193  0.85015887    -0.06100
C2092       C  0.86792380  0.34379575  0.85054002    -0.06000
C2093       C  0.89073602  0.40551428  0.89083220    -0.05300
C2094       C  0.82809270  0.39350581  0.88921048    -0.06100
C2095       C  0.86789179  0.34335340  0.88900394    -0.06000
C2096       C  0.89781100  0.44164672  0.90078464    -0.31400
N2097       N  0.90612305  0.46183432  0.87212265     0.15100
C2098       C  0.89805193  0.44153136  0.84284227    -0.31400
H2099       H  0.89402117  0.45374657  0.81680151     0.17100
C2100       C  0.79439729  0.40772976  0.89853085    -0.30300
N2101       N  0.77472150  0.41525210  0.86809623     0.13900
C2102       C  0.79585589  0.40853728  0.83916354    -0.30300
C2103       C  0.85397814  0.30979702  0.89794176    -0.30600
N2104       N  0.84868652  0.28930032  0.86803854     0.14400
H2105       H  0.84713055  0.30063882  0.92454613     0.17000
C2106       C  0.85315951  0.31101858  0.83958337    -0.30600
H2107       H  0.84691239  0.30267946  0.81219391     0.17000
H2108       H  0.78718265  0.41311173  0.81195185     0.17000
H2109       H  0.89385994  0.45399292  0.92693234     0.17100
H2110       H  0.78417292  0.41170604  0.92538648     0.17000
C2111       C  0.38436004  0.01657245  0.78920569     0.30900
C2112       C  0.38446351  0.01738369  0.96018034     0.30900
C2113       C  0.42139000  0.00999775  0.76981685    -0.05300
C2114       C  0.36032190  0.98761659  0.76854479    -0.06100
C2115       C  0.37186986  0.05173322  0.76923473    -0.06000
C2116       C  0.42114684  0.01081207  0.98130766    -0.05300
C2117       C  0.36027110  0.98845541  0.97855997    -0.06100
C2118       C  0.37160757  0.05249144  0.98041293    -0.06000
C2119       C  0.45251226  0.99273585  0.97157062    -0.31400
N2120       N  0.47032742  0.98044687  0.00155720     0.15100
C2121       C  0.45269510  0.99181036  0.78050334    -0.31400
H2122       H  0.45956794  0.98464079  0.80792682     0.17100
C2123       C  0.32828856  0.97216649  0.96655708    -0.30300
N2124       N  0.30770111  0.96349834  0.99512546     0.13900
C2125       C  0.32748673  0.97238140  0.77788162    -0.30300
C2126       C  0.36453336  0.08783247  0.97015625    -0.30600
N2127       N  0.36087266  0.10974879  0.99984390     0.14400
H2128       H  0.36423749  0.09730258  0.94275037     0.17000
C2129       C  0.36443394  0.08727565  0.77973702    -0.30600
H2130       H  0.36362451  0.09727879  0.80703743     0.17000
H2131       H  0.31688940  0.97260444  0.80472750     0.17000
H2132       H  0.45967640  0.98590370  0.94423453     0.17100
H2133       H  0.31800387  0.97191369  0.93907336     0.17000
C2134       C  0.38416378  0.01701008  0.91405603     0.30900
C2135       C  0.38379769  0.01658063  0.83543901     0.30900
C2136       C  0.39314306  0.98061247  0.89386348    -0.05300
C2137       C  0.34785140  0.02692953  0.89349270    -0.06100
C2138       C  0.41121327  0.04293836  0.89486441    -0.06000
C2139       C  0.39290895  0.98043454  0.85530663    -0.05300
C2140       C  0.34750215  0.02663614  0.85503634    -0.06100
C2141       C  0.41110496  0.04258982  0.85613364    -0.06000
C2142       C  0.40859887  0.94800629  0.84470072    -0.31400
N2143       N  0.41945358  0.92912548  0.87441102     0.15100
C2144       C  0.40910831  0.94826889  0.90424762    -0.31400
H2145       H  0.41528668  0.94073295  0.93173466     0.17100
C2146       C  0.31139763  0.03251925  0.84438207    -0.30300
N2147       N  0.28978762  0.03534867  0.87389721     0.13900
C2148       C  0.31220965  0.03307967  0.90362477    -0.30300
C2149       C  0.42481586  0.07591343  0.84636725    -0.30600
N2150       N  0.43174440  0.09696685  0.87608770     0.14400
H2151       H  0.42471012  0.08581958  0.81922999     0.17000
C2152       C  0.42481958  0.07663679  0.90547743    -0.30600
H2153       H  0.42476626  0.08760481  0.93260309     0.17000
H2154       H  0.30299488  0.03379514  0.93100439     0.17000
H2155       H  0.41431803  0.94025245  0.81721411     0.17100
H2156       H  0.30135576  0.03316261  0.81697139     0.17000
C2157       C  0.53146897  0.86298192  0.78944856     0.30900
C2158       C  0.53170046  0.86452790  0.96108472     0.30900
C2159       C  0.52326209  0.89970010  0.76988203    -0.05300
C2160       C  0.56719836  0.85219074  0.76970607    -0.06100
C2161       C  0.50386444  0.83753646  0.76825166    -0.06000
C2162       C  0.52374366  0.90103230  0.98172470    -0.05300
C2163       C  0.56722264  0.85287491  0.98204608    -0.06100
C2164       C  0.50328688  0.83967913  0.97996060    -0.06000
C2165       C  0.50773023  0.93348535  0.97165618    -0.31400
N2166       N  0.49667861  0.95208181  0.00158796     0.15100
C2167       C  0.50759720  0.93215319  0.78064403    -0.31400
H2168       H  0.50156440  0.93962295  0.80812677     0.17100
C2169       C  0.60357918  0.84990597  0.97268949    -0.30300
N2170       N  0.62506053  0.84877167  0.00304655     0.13900
C2171       C  0.60302451  0.84788297  0.78082861    -0.30300
C2172       C  0.48435954  0.80917634  0.96840487    -0.30600
N2173       N  0.47342908  0.78965246  0.99721175     0.14400
H2174       H  0.48368313  0.79895703  0.94111233     0.17000
C2175       C  0.48761149  0.80463999  0.77684365    -0.30600
H2176       H  0.48690823  0.79295747  0.80341290     0.17000
H2177       H  0.61275721  0.84872570  0.80833002     0.17000
H2178       H  0.50170163  0.94125179  0.94420239     0.17100
H2179       H  0.61406758  0.85143999  0.94568753     0.17000
C2180       C  0.53186920  0.86410950  0.91469255     0.30900
C2181       C  0.53168343  0.86309520  0.83582168     0.30900
C2182       C  0.49491568  0.87023368  0.89409518    -0.05300
C2183       C  0.55593056  0.89251928  0.89516770    -0.06100
C2184       C  0.54496688  0.82902281  0.89470597    -0.06000
C2185       C  0.49473107  0.86988414  0.85538277    -0.05300
C2186       C  0.55611519  0.89195946  0.85630517    -0.06100
C2187       C  0.54473339  0.82827575  0.85612128    -0.06000
C2188       C  0.46352915  0.88837463  0.84482500    -0.31400
N2189       N  0.44548686  0.90050140  0.87441384     0.15100
C2190       C  0.46394351  0.88873935  0.90421416    -0.31400
H2191       H  0.45747943  0.89619333  0.93157449     0.17100
C2192       C  0.58871438  0.90809245  0.84694594    -0.30300
N2193       N  0.60782071  0.91799565  0.87722650     0.13900
C2194       C  0.58801731  0.90913226  0.90629691    -0.30300
C2195       C  0.54930963  0.79216260  0.84608051    -0.30600
N2196       N  0.55155496  0.77124130  0.87610175     0.14400
H2197       H  0.54678621  0.78128040  0.81893838     0.17000
C2198       C  0.54989104  0.79368132  0.90545024    -0.30600
H2199       H  0.54707728  0.78432848  0.93260458     0.17000
H2200       H  0.59798101  0.91113923  0.93369505     0.17000
H2201       H  0.45657277  0.89548916  0.81741012     0.17100
H2202       H  0.59940203  0.90970094  0.82005352     0.17000
C2203       C  0.01778048  0.52922990  0.96096778     0.30900
C2204       C  0.01960827  0.52984086  0.78963642     0.30900
C2205       C  0.98970304  0.50472482  0.98011129    -0.05300
C2206       C  0.05234729  0.51290554  0.98105961    -0.06100
C2207       C  0.01586837  0.56553275  0.98149468    -0.06000
C2208       C  0.99184670  0.50487835  0.76881494    -0.05300
C2209       C  0.05480961  0.51426983  0.77042478    -0.06100
C2210       C  0.01707886  0.56619722  0.76999557    -0.06000
C2211       C  0.98467429  0.46883993  0.77762762    -0.31400
N2212       N  0.97659004  0.44863499  0.74824431     0.15100
C2213       C  0.98218609  0.46877608  0.97007834    -0.31400
H2214       H  0.98644994  0.45631230  0.94404566     0.17100
C2215       C  0.08717600  0.49715107  0.78065872    -0.30300
N2216       N  0.10602667  0.48763296  0.75071774     0.13900
C2217       C  0.08263570  0.49366449  0.97064291    -0.30300
C2218       C  0.03423044  0.59806634  0.78092986    -0.30600
N2219       N  0.04325717  0.61761091  0.75210198     0.14400
H2220       H  0.04096559  0.60639102  0.80832722     0.17000
C2221       C  0.03258317  0.59744307  0.97193841    -0.30600
H2222       H  0.03944213  0.60545788  0.94505112     0.17000
H2223       H  0.09061432  0.48851332  0.94340868     0.17000
H2224       H  0.98888172  0.45644288  0.80356698     0.17100
H2225       H  0.09692270  0.49237717  0.80781518     0.17000
C2226       C  0.01439402  0.53432908  0.83584439     0.30900
C2227       C  0.01359344  0.53382774  0.91450687     0.30900
C2228       C  0.98994843  0.50559595  0.85465738    -0.05300
C2229       C  0.05075297  0.53303584  0.85697275    -0.06100
C2230       C  0.99742822  0.56866142  0.85572494    -0.06000
C2231       C  0.98968947  0.50544346  0.89361856    -0.05300
C2232       C  0.05025996  0.53293671  0.89536144    -0.06100
C2233       C  0.99689884  0.56800889  0.89472931    -0.06000
C2234       C  0.95372845  0.49734095  0.90222213    -0.31400
N2235       N  0.93371342  0.48882140  0.87279222     0.15100
C2236       C  0.95398460  0.49719813  0.84430346    -0.31400
H2237       H  0.94159924  0.50080943  0.81798768     0.17100
C2238       C  0.08214576  0.54992402  0.90660269    -0.30300
N2239       N  0.10340684  0.55677575  0.87821340     0.13900
C2240       C  0.08318771  0.54977217  0.84821098    -0.30300
C2241       C  0.97902611  0.59906328  0.90531696    -0.30600
N2242       N  0.97076303  0.61970953  0.87621886     0.14400
H2243       H  0.97372361  0.60709011  0.93253363     0.17000
C2244       C  0.98050737  0.60103227  0.84599212    -0.30600
H2245       H  0.97652489  0.61121235  0.81900828     0.17000
H2246       H  0.09204058  0.55644155  0.82145086     0.17000
H2247       H  0.94106352  0.50152249  0.92792632     0.17100
H2248       H  0.09029912  0.55582200  0.93417213     0.17000
O2249       O  0.90982608  0.93938086  0.79168701    -0.70900
O2250       O  0.01388901  0.95358283  0.79019354    -0.71100
O2251       O  0.95549434  0.99872568  0.78693445    -0.71000
O2252       O  0.96895273  0.89626718  0.79296311    -0.71000
O2253       O  0.97685317  0.89615732  0.98439764    -0.70900
O2254       O  0.94683119  0.99436322  0.98115470    -0.71000
O2255       O  0.01164990  0.95900158  0.98250699    -0.70900
O2256       O  0.91103673  0.92816890  0.98554833    -0.71100
V2257       V  0.96176890  0.94721440  0.78953070     1.35200
V2258       V  0.96123159  0.94474009  0.98428681     1.35200
C2259       C  0.89428572  0.92769174  0.01537385     0.78300
C2260       C  0.03143671  0.95836527  0.01099097     0.78400
C2261       C  0.94769985  0.01350694  0.75705658     0.78300
C2262       C  0.97753793  0.87891442  0.76481900     0.78200
O2263       O  0.89743088  0.97033116  0.85713409    -0.70900
O2264       O  0.00212845  0.96268876  0.85864689    -0.71100
O2265       O  0.94458567  0.91441204  0.86047575    -0.71000
O2266       O  0.95460267  0.01657760  0.85480461    -0.71000
O2267       O  0.94608149  0.02229108  0.91203391    -0.70900
O2268       O  0.95282719  0.91802833  0.91835977    -0.71000
O2269       O  0.00216371  0.97509554  0.91569668    -0.70900
O2270       O  0.89825172  0.96657992  0.91529502    -0.71100
V2271       V  0.94976059  0.96587864  0.85879827     1.35200
V2272       V  0.95010254  0.97021267  0.91452297     1.35200
C2273       C  0.87986497  0.96898751  0.88616763     0.78300
C2274       C  0.02002023  0.97108729  0.88712922     0.78400
C2275       C  0.94755311  0.89840773  0.89030095     0.78300
C2276       C  0.94823293  0.03689929  0.88141956     0.78200
O2277       O  0.50160883  0.42385623  0.77113440    -0.70900
O2278       O  0.40221330  0.45491599  0.77001179    -0.71100
O2279       O  0.43534979  0.39035737  0.76787957    -0.71000
O2280       O  0.46757622  0.49009443  0.77140520    -0.71000
O2281       O  0.45777620  0.49401494  0.96501860    -0.70900
O2282       O  0.44462054  0.39130698  0.96175738    -0.71000
O2283       O  0.39964237  0.44922440  0.96191005    -0.70900
O2284       O  0.50349403  0.43552013  0.96653658    -0.71100
V2285       V  0.45198318  0.43983068  0.76924779     1.35200
V2286       V  0.45149887  0.44272767  0.96470926     1.35200
C2287       C  0.51843843  0.42566778  0.99599407     0.78300
C2288       C  0.38171115  0.45637851  0.99004553     0.78400
C2289       C  0.43522178  0.37236398  0.73849113     0.78300
C2290       C  0.46577603  0.50823296  0.74252743     0.78200
O2291       O  0.41854613  0.39318064  0.83580738    -0.70900
O2292       O  0.43544647  0.49719968  0.83785600    -0.71100
O2293       O  0.47803139  0.43810574  0.83655160    -0.71000
O2294       O  0.37500068  0.45282151  0.83807346    -0.71000
O2295       O  0.37896406  0.45742548  0.89614116    -0.70900
O2296       O  0.47890013  0.43179513  0.89449738    -0.71000
O2297       O  0.44178651  0.49442954  0.89574240    -0.70900
O2298       O  0.41575119  0.39297818  0.89386295    -0.71100
V2299       V  0.42658283  0.44507880  0.83804708     1.35200
V2300       V  0.42856290  0.44400060  0.89395802     1.35200
C2301       C  0.41430869  0.37513542  0.86437420     0.78300
C2302       C  0.44437113  0.51309445  0.86732745     0.78400
C2303       C  0.49617789  0.43327990  0.86545764     0.78300
C2304       C  0.36013081  0.46029053  0.86769693     0.78200
C2305       C  0.18577666  0.50113976  0.89346737    -0.04600
C2306       C  0.21504100  0.52440332  0.88359346     0.09600
C2307       C  0.20567334  0.56085267  0.87340805    -0.02000
C2308       C  0.16893155  0.57264406  0.87478080    -0.00200
C2309       C  0.14112656  0.54714230  0.87973320    -0.03800
C2310       C  0.14990503  0.51081190  0.88578795     0.03200
C2311       C  0.25306415  0.50843784  0.87930123     0.10000
C2312       C  0.23202420  0.58599540  0.85901924     0.35900
C2313       C  0.12209521  0.48255755  0.88163551     0.39300
C2314       C  0.25726829  0.47452302  0.86054674    -0.04200
C2315       C  0.29175389  0.45798165  0.85753798     0.03000
C2316       C  0.32323782  0.47644963  0.86976123    -0.03800
C2317       C  0.31991955  0.51171745  0.88447840     0.00000
C2318       C  0.28544974  0.52664298  0.89158494    -0.02600
C2319       C  0.22629693  0.45691441  0.84273999     0.36700
C2320       C  0.35198735  0.53479617  0.88840461     0.40300
C2321       C  0.29434323  0.42226448  0.84108972     0.39400
C2322       C  0.28523761  0.56128699  0.91058396     0.36300
C2323       C  0.19028807  0.46547865  0.90867756     0.37000
C2324       C  0.15929647  0.61040518  0.86954608     0.40300
N2325       N  0.29454311  0.39371094  0.82774031    -0.37800
N2326       N  0.20044779  0.44273530  0.83093093    -0.39400
N2327       N  0.37654991  0.55460381  0.89036893    -0.37100
N2328       N  0.28790028  0.58946235  0.92473158    -0.39500
N2329       N  0.25234861  0.60676128  0.84733103    -0.39300
N2330       N  0.15152895  0.64062352  0.86585277    -0.36900
N2331       N  0.10043712  0.45973916  0.87783600    -0.38000
N2332       N  0.18811142  0.43600118  0.91878923    -0.39600
C2333       C  0.92295777  0.79701842  0.90199081    -0.04600
C2334       C  0.95463287  0.77882418  0.88844171     0.09600
C2335       C  0.98286528  0.80193230  0.87519320    -0.02000
C2336       C  0.97991404  0.84023188  0.87704934    -0.00200
C2337       C  0.94923030  0.85747166  0.89094371    -0.03800
C2338       C  0.91948418  0.83558307  0.90028446     0.03200
C2339       C  0.95767638  0.73668732  0.88627843     0.10000
C2340       C  0.01493154  0.78774945  0.85781564     0.35900
C2341       C  0.88400048  0.85234695  0.90366151     0.39300
C2342       C  0.92806759  0.71382436  0.87356275    -0.04200
C2343       C  0.93199129  0.67524335  0.87117729     0.03000
C2344       C  0.96580778  0.65880431  0.87859583    -0.03800
C2345       C  0.99544372  0.68083423  0.88931474     0.00000
C2346       C  0.99105282  0.71853378  0.89536457    -0.02600
C2347       C  0.89529407  0.72945854  0.85764317     0.36700
C2348       C  0.03130742  0.66445056  0.89303014     0.40300
C2349       C  0.90169950  0.65229293  0.85944818     0.39400
C2350       C  0.02157224  0.73735871  0.91231820     0.36300
C2351       C  0.89377522  0.77717508  0.91890464     0.37000
C2352       C  0.00562433  0.86292934  0.85908963     0.40300
N2353       N  0.87758230  0.63383554  0.85007312    -0.37800
N2354       N  0.86925135  0.74151432  0.84436857    -0.39400
N2355       N  0.06002317  0.65162437  0.89535360    -0.37100
N2356       N  0.04746193  0.75111055  0.92443488    -0.39500
N2357       N  0.04151573  0.77756970  0.84483756    -0.39300
N2358       N  0.02285108  0.88370872  0.84382766    -0.36900
N2359       N  0.85541895  0.86534475  0.90560943    -0.38000
N2360       N  0.87019134  0.76180733  0.93252201    -0.39600
C2361       C  0.27973564  0.44138817  0.96538102    -0.04600
C2362       C  0.26153236  0.46764031  0.98734081     0.09600
C2363       C  0.28619958  0.48442022  0.76515844    -0.02000
C2364       C  0.32465005  0.48178063  0.76451496    -0.00200
C2365       C  0.34047825  0.46115905  0.98857782    -0.03800
C2366       C  0.31842933  0.43896443  0.96589947     0.03200
C2367       C  0.21961283  0.47068905  0.98921981     0.10000
C2368       C  0.27057653  0.51248364  0.78759713     0.35900
C2369       C  0.33606638  0.41056409  0.94599692     0.39300
C2370       C  0.19699552  0.43810781  0.75298519    -0.04200
C2371       C  0.15878496  0.44496307  0.75527572     0.03000
C2372       C  0.14204751  0.47869567  0.99850358    -0.03800
C2373       C  0.16401903  0.50878062  0.99114342     0.00000
C2374       C  0.20154091  0.50474101  0.98447125    -0.02600
C2375       C  0.21057618  0.40256047  0.76291475     0.36700
C2376       C  0.14748357  0.54464288  0.99107503     0.40300
C2377       C  0.13361663  0.41615808  0.76422930     0.39400
C2378       C  0.22011067  0.53691384  0.97261292     0.36300
C2379       C  0.26024794  0.41531238  0.94261734     0.37000
C2380       C  0.34591713  0.50491575  0.78825934     0.40300
N2381       N  0.11328542  0.39329246  0.77135618    -0.37800
N2382       N  0.22106201  0.37415514  0.77121396    -0.39400
N2383       N  0.13426728  0.57315443  0.99146561    -0.37100
N2384       N  0.23156897  0.56512559  0.96542239    -0.39500
N2385       N  0.25837732  0.53630832  0.80385947    -0.39300
N2386       N  0.36170631  0.52286778  0.80890398    -0.36900
N2387       N  0.35258600  0.38803178  0.93215830    -0.38000
N2388       N  0.24758493  0.39253192  0.92445635    -0.39600
C2389       C  0.04190683  0.80022876  0.99816360    -0.04600
C2390       C  0.02085028  0.77070271  0.76370257     0.09600
C2391       C  0.98762140  0.77828259  0.78140010    -0.02000
C2392       C  0.97392743  0.81378930  0.78330277    -0.00200
C2393       C  0.99271218  0.84199252  0.76640927    -0.03800
C2394       C  0.02810237  0.83581227  0.99914993     0.03200
C2395       C  0.03092921  0.73185390  0.75627735     0.10000
C2396       C  0.96656046  0.74868252  0.79582182     0.35900
C2397       C  0.04943324  0.86499923  0.98432636     0.39300
C2398       C  0.06375590  0.71600514  0.76972365    -0.04200
C2399       C  0.06950162  0.67830204  0.76501687     0.03000
C2400       C  0.04073454  0.65620326  0.75208450    -0.03800
C2401       C  0.00478865  0.67230175  0.99150880     0.00000
C2402       C  0.00223625  0.70983857  0.98897110    -0.02600
C2403       C  0.09040948  0.73717124  0.79039650     0.36700
C2404       C  0.97168809  0.65045209  0.98904764     0.40300
C2405       C  0.10400366  0.66178073  0.77485296     0.39400
C2406       C  0.96845905  0.72469739  0.97465251     0.36300
C2407       C  0.07728615  0.79384431  0.98240350     0.37000
C2408       C  0.93986389  0.82068483  0.80138729     0.40300
N2409       N  0.13167081  0.64848577  0.78222813    -0.37800
N2410       N  0.11202369  0.75360371  0.80702364    -0.39400
N2411       N  0.94474045  0.63388860  0.98827844    -0.37100
N2412       N  0.94038765  0.73572662  0.96553786    -0.39500
N2413       N  0.95034538  0.72286094  0.80292644    -0.39300
N2414       N  0.91259259  0.82568446  0.81582482    -0.36900
N2415       N  0.06726368  0.88802834  0.97306307    -0.38000
N2416       N  0.10567981  0.78940865  0.96995320    -0.39600
C2417       C  0.48954208  0.69124953  0.88882067    -0.04600
C2418       C  0.51235832  0.66055741  0.88250107     0.09600
C2419       C  0.54974115  0.66778918  0.87480246    -0.02000
C2420       C  0.56308142  0.70424572  0.87328239    -0.00200
C2421       C  0.53913007  0.73381028  0.87713000    -0.03800
C2422       C  0.50217421  0.72689785  0.88320310     0.03200
C2423       C  0.49558551  0.62226206  0.87870363     0.10000
C2424       C  0.57456782  0.63818591  0.86733514     0.35900
C2425       C  0.47643804  0.75676874  0.88098197     0.39300
C2426       C  0.46692407  0.61592260  0.85312485    -0.04200
C2427       C  0.45037602  0.58110878  0.84823099     0.03000
C2428       C  0.46134753  0.55118430  0.86963434    -0.03800
C2429       C  0.49132847  0.55714937  0.89376931     0.00000
C2430       C  0.50796518  0.59184475  0.89869864    -0.02600
C2431       C  0.45380908  0.64606121  0.83181281     0.36700
C2432       C  0.50791149  0.52606400  0.91075590     0.40300
C2433       C  0.42232730  0.57805901  0.82064516     0.39400
C2434       C  0.53870227  0.59445353  0.92367306     0.36300
C2435       C  0.45205497  0.68751956  0.89952712     0.37000
C2436       C  0.60116519  0.71156400  0.86657736     0.40300
N2437       N  0.40091256  0.58102779  0.79760501    -0.39800
N2438       N  0.44327987  0.67155010  0.81711066    -0.39400
N2439       N  0.52030916  0.50004599  0.92283496    -0.37100
N2440       N  0.56379219  0.59345419  0.94307394    -0.39500
N2441       N  0.59449141  0.61469355  0.86108673    -0.39300
N2442       N  0.63161294  0.71742606  0.86118189    -0.36900
N2443       N  0.45584130  0.78039961  0.87829183    -0.38000
N2444       N  0.42154695  0.68833927  0.90666282    -0.39600
C2445       C  0.78609969  0.93338548  0.90372573    -0.04600
C2446       C  0.76223514  0.95563979  0.88314533     0.09600
C2447       C  0.77766025  0.98745728  0.86784609    -0.02000
C2448       C  0.81595129  0.99350463  0.87019298    -0.00200
C2449       C  0.83887885  0.96725171  0.88613330    -0.03800
C2450       C  0.82210843  0.94433765  0.91042638     0.03200
C2451       C  0.72163222  0.94677507  0.88058311     0.10000
C2452       C  0.75496375  0.01439148  0.85013143     0.35900
C2453       C  0.82933476  0.95576136  0.94682952     0.39300
C2454       C  0.69494033  0.97112791  0.89412771    -0.04200
C2455       C  0.65739619  0.96188770  0.89206215     0.03000
C2456       C  0.64607285  0.92766079  0.87861578    -0.03800
C2457       C  0.67254239  0.90218540  0.86823855     0.00000
C2458       C  0.70960110  0.91233275  0.86701456    -0.02600
C2459       C  0.70575119  0.00483541  0.91210230     0.36700
C2460       C  0.66234031  0.86432781  0.86317930     0.40300
C2461       C  0.63011448  0.98698329  0.90500056     0.39400
C2462       C  0.73565378  0.88648306  0.85315040     0.36300
C2463       C  0.77411232  0.89997060  0.91957424     0.37000
C2464       C  0.82856836  0.03049998  0.86961919     0.40300
N2465       N  0.60813325  0.00673200  0.91552483    -0.37800
N2466       N  0.71419791  0.03167396  0.92669618    -0.39400
N2467       N  0.65515739  0.83370981  0.86059833    -0.37100
N2468       N  0.75782590  0.86623168  0.84417711    -0.39500
N2469       N  0.73716929  0.03606921  0.83591282    -0.39300
N2470       N  0.83614939  0.06088554  0.87264631    -0.36900
N2471       N  0.83431051  0.97097182  0.97383264    -0.38000
N2472       N  0.76347646  0.87226585  0.92944798    -0.39600
C2473       C  0.49578655  0.60801263  0.75507029    -0.04600
C2474       C  0.46828053  0.62723261  0.73537722     0.09600
C2475       C  0.43606335  0.60897802  0.97376655    -0.02000
C2476       C  0.43512218  0.57085131  0.97873020    -0.00200
C2477       C  0.46737074  0.54897610  0.74159339    -0.03800
C2478       C  0.49769581  0.56958775  0.75366024     0.03200
C2479       C  0.46911578  0.66922227  0.73415147     0.10000
C2480       C  0.40658688  0.62425393  0.95238145     0.35900
C2481       C  0.53233182  0.55238378  0.76086008     0.39300
C2482       C  0.49786566  0.69223705  0.98177742    -0.04200
C2483       C  0.50077824  0.72968151  0.98926787     0.03000
C2484       C  0.47428180  0.74701471  0.74323258    -0.03800
C2485       C  0.44018807  0.72949423  0.74417556     0.00000
C2486       C  0.43757462  0.69087838  0.74143135    -0.02600
C2487       C  0.53015974  0.67555177  0.96742417     0.36700
C2488       C  0.40796115  0.75137583  0.74948805     0.40300
C2489       C  0.53652757  0.74677912  0.99286872     0.39400
C2490       C  0.40275711  0.67419059  0.74935114     0.36300
C2491       C  0.52189334  0.62720958  0.77802614     0.37000
C2492       C  0.40161970  0.55110963  0.97079301     0.40300
N2493       N  0.56510443  0.75998836  0.99655749    -0.37800
N2494       N  0.55829486  0.66619851  0.95740520    -0.39400
N2495       N  0.38216047  0.76883215  0.75367206    -0.37100
N2496       N  0.37485700  0.66132916  0.75611140    -0.39500
N2497       N  0.38130088  0.63390885  0.93599852    -0.39300
N2498       N  0.37427192  0.53610234  0.96544536    -0.36900
N2499       N  0.56096036  0.54019490  0.76602495    -0.38000
N2500       N  0.54307658  0.64331030  0.79536214    -0.39600
C2501       C  0.81179186  0.86270394  0.99914157    -0.04600
C2502       C  0.78205004  0.88254383  0.01378520     0.09600
C2503       C  0.78906007  0.91753676  0.77877702    -0.02000
C2504       C  0.82437077  0.93307616  0.77648237    -0.00200
C2505       C  0.85630164  0.91061847  0.01834039    -0.03800
C2506       C  0.84825060  0.87650241  0.00186820     0.03200
C2507       C  0.74155949  0.87146211  0.00770300     0.10000
C2508       C  0.75996834  0.93931680  0.79350296     0.35900
C2509       C  0.87806344  0.85466241  0.98901742     0.39300
C2510       C  0.72668129  0.83705918  0.77017999    -0.04200
C2511       C  0.68871695  0.82876442  0.76721344     0.03000
C2512       C  0.66425574  0.85582570  0.00429382    -0.03800
C2513       C  0.67782332  0.88995696  0.99408693     0.00000
C2514       C  0.71581050  0.89687652  0.99339190    -0.02600
C2515       C  0.75040889  0.81130313  0.78824217     0.36700
C2516       C  0.65244835  0.91953444  0.98834351     0.40300
C2517       C  0.67464185  0.79460229  0.78030896     0.39400
C2518       C  0.72790414  0.93142185  0.97934999     0.36300
C2519       C  0.80536644  0.82879442  0.97966418     0.37000
C2520       C  0.82692914  0.97217690  0.77898719     0.40300
N2521       N  0.66318166  0.76750168  0.79102123    -0.37800
N2522       N  0.76900375  0.79060347  0.80292677    -0.39400
N2523       N  0.63259377  0.94371580  0.98516823    -0.37100
N2524       N  0.73793239  0.95953848  0.96990528    -0.39500
N2525       N  0.73498425  0.95630643  0.80187740    -0.39300
N2526       N  0.82428980  0.00348836  0.77938290    -0.36900
N2527       N  0.90219613  0.83705912  0.97958340    -0.38000
N2528       N  0.80053064  0.80174013  0.96396560    -0.39600
C2529       C  0.43616224  0.27362268  0.84747016    -0.04600
C2530       C  0.41262633  0.25525305  0.87138950     0.09600
C2531       C  0.38519857  0.27708315  0.88783366    -0.02000
C2532       C  0.38270656  0.31502337  0.88090223    -0.00200
C2533       C  0.41096700  0.33374317  0.86367130    -0.03800
C2534       C  0.43622659  0.31206969  0.84512744     0.03200
C2535       C  0.41615180  0.21363984  0.87565694     0.10000
C2536       C  0.35620446  0.26121215  0.90821817     0.35900
C2537       C  0.46037222  0.32885157  0.82054490     0.39300
C2538       C  0.45161159  0.19811689  0.88136878    -0.04200
C2539       C  0.45718686  0.15991705  0.87885129     0.03000
C2540       C  0.42720222  0.13606540  0.87617407    -0.03800
C2541       C  0.39189999  0.15062252  0.87388660     0.00000
C2542       C  0.38617061  0.18849831  0.87168733    -0.02600
C2543       C  0.48232917  0.22107373  0.89231524     0.36700
C2544       C  0.36073768  0.12625596  0.87275248     0.40300
C2545       C  0.49359237  0.14487781  0.88082264     0.39400
C2546       C  0.34880986  0.19916275  0.86418316     0.36300
C2547       C  0.45973540  0.25298244  0.82383741     0.37000
C2548       C  0.34708763  0.33156544  0.88227433     0.40300
N2549       N  0.52270164  0.13284913  0.88219364    -0.37800
N2550       N  0.50687101  0.23939812  0.90079667    -0.39400
N2551       N  0.33469965  0.10842734  0.87181962    -0.37100
N2552       N  0.31834138  0.20524295  0.85799757    -0.39500
N2553       N  0.33116914  0.24968112  0.92287635    -0.39300
N2554       N  0.31751516  0.34243741  0.88240330    -0.36900
N2555       N  0.47877094  0.34124621  0.79915167    -0.38000
N2556       N  0.47934462  0.23634583  0.80607251    -0.39600
C2557       C  0.18930392  0.01928950  0.85023478    -0.04600
C2558       C  0.17631136  0.01097498  0.88463830     0.09600
C2559       C  0.20325201  0.01097899  0.91243763    -0.02000
C2560       C  0.23183614  0.03641758  0.90780381    -0.00200
C2561       C  0.24971471  0.03502006  0.87435482    -0.03800
C2562       C  0.22779505  0.02059624  0.84520431     0.03200
C2563       C  0.13633814  0.00036857  0.88910507     0.10000
C2564       C  0.21969757  0.97565170  0.91601344     0.35900
C2565       C  0.24165136  0.98721328  0.83058165     0.39300
C2566       C  0.12500553  0.96377539  0.89379891    -0.04200
C2567       C  0.08744699  0.95396962  0.89266984     0.03000
C2568       C  0.06014122  0.98025249  0.88661920    -0.03800
C2569       C  0.07136398  0.01672616  0.88194207     0.00000
C2570       C  0.10869171  0.02680731  0.88372472    -0.02600
C2571       C  0.15122900  0.93494088  0.89849221     0.36700
C2572       C  0.04469048  0.04470856  0.87519837     0.40300
C2573       C  0.07790374  0.91609696  0.89661532     0.39400
C2574       C  0.11852539  0.06498857  0.88021866     0.36300
C2575       C  0.16297160  0.02875948  0.82284132     0.37000
C2576       C  0.23260243  0.07010078  0.92798221     0.40300
N2577       N  0.07355747  0.88511639  0.89957190    -0.37800
N2578       N  0.17002562  0.90996389  0.90178727    -0.39400
N2579       N  0.02501456  0.06843714  0.86934396    -0.37100
N2580       N  0.12619431  0.09539202  0.87748165    -0.39500
N2581       N  0.23555199  0.94852043  0.91505405    -0.39300
N2582       N  0.23300810  0.09761952  0.94348261    -0.36900
N2583       N  0.25195161  0.95853480  0.82293604    -0.38000
N2584       N  0.13901258  0.03809383  0.80443573    -0.39600
C2585       C  0.37706836  0.20866576  0.77152812    -0.04600
C2586       C  0.38358695  0.22103261  0.73646151     0.09600
C2587       C  0.38261628  0.19591228  0.95980653    -0.02000
C2588       C  0.35755359  0.16750323  0.96609090    -0.00200
C2589       C  0.35999682  0.14837670  0.74944120    -0.03800
C2590       C  0.37610803  0.17053236  0.77749740     0.03200
C2591       C  0.39647742  0.25995953  0.73121252     0.10000
C2592       C  0.41762355  0.17934546  0.95436547     0.35900
C2593       C  0.41043031  0.15750431  0.79145560     0.39300
C2594       C  0.43419009  0.27090816  0.97909234    -0.04200
C2595       C  0.44598943  0.30770235  0.97962321     0.03000
C2596       C  0.42238540  0.33362068  0.73637848    -0.03800
C2597       C  0.38599814  0.32487837  0.74426158     0.00000
C2598       C  0.37235661  0.28925702  0.73854751    -0.02600
C2599       C  0.46195586  0.24306523  0.97916248     0.36700
C2600       C  0.36338719  0.35173721  0.76159081     0.40300
C2601       C  0.48475101  0.31536001  0.97859768     0.39400
C2602       C  0.33348652  0.28276922  0.74246416     0.36300
C2603       C  0.36690853  0.23498608  0.79820545     0.37000
C2604       C  0.32525203  0.16234934  0.94394540     0.40300
N2605       N  0.51603629  0.31957515  0.97955254    -0.37800
N2606       N  0.48583159  0.22258423  0.98033097    -0.39400
N2607       N  0.34577516  0.37296914  0.77636007    -0.37100
N2608       N  0.30252308  0.27775417  0.74571195    -0.39500
N2609       N  0.44463150  0.16317710  0.95414346    -0.39300
N2610       N  0.29865542  0.15828367  0.92701830    -0.36900
N2611       N  0.43984067  0.14871005  0.79893398    -0.38000
N2612       N  0.35640176  0.25880164  0.81576603    -0.39600
C2613       C  0.13412298  0.95161631  0.78036021    -0.04600
C2614       C  0.14976103  0.97320707  0.00289555     0.09600
C2615       C  0.12468472  0.99615793  0.98424293    -0.02000
C2616       C  0.08650535  0.99164346  0.98799978    -0.00200
C2617       C  0.07214291  0.96425336  0.00992531    -0.03800
C2618       C  0.09631079  0.94409883  0.78089641     0.03200
C2619       C  0.19084466  0.97225519  0.99632022     0.10000
C2620       C  0.13676413  0.02825976  0.96598131     0.35900
C2621       C  0.08614303  0.91033308  0.79735293     0.39300
C2622       C  0.20807664  0.93778354  0.99020065    -0.04200
C2623       C  0.24661443  0.93463596  0.99078717     0.03000
C2624       C  0.26853057  0.96589062  0.99349015    -0.03800
C2625       C  0.25189609  0.00148759  0.74809723     0.00000
C2626       C  0.21377241  0.00551503  0.75068574    -0.02600
C2627       C  0.18644108  0.90518514  0.98296675     0.36700
C2628       C  0.27471998  0.03369732  0.74948981     0.40300
C2629       C  0.26396020  0.89942006  0.98802371     0.39400
C2630       C  0.20128502  0.04222977  0.75732145     0.36300
C2631       C  0.15837733  0.93298089  0.80545168     0.37000
C2632       C  0.06169399  0.01697451  0.97100122     0.40300
N2633       N  0.27785694  0.87129281  0.98593020    -0.37800
N2634       N  0.16935730  0.87900081  0.97783071    -0.39400
N2635       N  0.29056033  0.06090757  0.75083187    -0.37100
N2636       N  0.19423570  0.07246984  0.76277723    -0.39500
N2637       N  0.14477720  0.05568199  0.95329655    -0.39300
N2638       N  0.04149069  0.03725670  0.95811370    -0.36900
N2639       N  0.08355160  0.88129427  0.80865148    -0.38000
N2640       N  0.17824170  0.91734224  0.82418180    -0.39600
C2641       C  0.93666730  0.14048481  0.88676913    -0.04600
C2642       C  0.90726403  0.14528380  0.86164828     0.09600
C2643       C  0.89451601  0.11471360  0.84180480    -0.02000
C2644       C  0.91092531  0.08074887  0.84665717    -0.00200
C2645       C  0.93718789  0.07512509  0.87431854    -0.03800
C2646       C  0.95030323  0.10541165  0.89429832     0.03200
C2647       C  0.88943325  0.18190897  0.85808505     0.10000
C2648       C  0.86155177  0.11542165  0.81981207     0.35900
C2649       C  0.97806324  0.10133954  0.92214303     0.39300
C2650       C  0.91135433  0.21278463  0.85092408    -0.04200
C2651       C  0.89888759  0.24736635  0.85971992     0.03000
C2652       C  0.86179738  0.25291195  0.86632394    -0.03800
C2653       C  0.83832421  0.22332345  0.87013058     0.00000
C2654       C  0.85225153  0.18768455  0.86775758    -0.02600
C2655       C  0.94787919  0.21066990  0.83698674     0.36700
C2656       C  0.80063137  0.23001081  0.87913754     0.40300
C2657       C  0.92498203  0.27703255  0.86477677     0.39400
C2658       C  0.82811875  0.15808343  0.87696999     0.36300
C2659       C  0.95216839  0.17162449  0.90588520     0.37000
C2660       C  0.89782270  0.05047015  0.82482144     0.40300
N2661       N  0.94605028  0.30031171  0.86911315    -0.37800
N2662       N  0.97738867  0.21397236  0.82703415    -0.39400
N2663       N  0.77063518  0.23548932  0.88663578    -0.37100
N2664       N  0.80786160  0.13534430  0.88464048    -0.39500
N2665       N  0.83389446  0.11101837  0.80482560    -0.39300
N2666       N  0.88730188  0.02606986  0.80778096    -0.36900
N2667       N  0.00045781  0.09985757  0.94445118    -0.38000
N2668       N  0.96468427  0.19765267  0.91889328    -0.39600
C2669       C  0.67992963  0.45616493  0.87294040    -0.04600
C2670       C  0.65719644  0.42612189  0.86209609     0.09600
C2671       C  0.67505942  0.39325822  0.85191780    -0.02000
C2672       C  0.71342288  0.38986980  0.85468108    -0.00200
C2673       C  0.73539197  0.41945219  0.86597022    -0.03800
C2674       C  0.71859382  0.45254537  0.87504498     0.03200
C2675       C  0.61530948  0.42837148  0.86302033     0.10000
C2676       C  0.65468180  0.36207368  0.83853207     0.35900
C2677       C  0.74131365  0.48241458  0.88805268     0.39300
C2678       C  0.59541006  0.45626063  0.84490025    -0.04200
C2679       C  0.55698942  0.45822589  0.84725641     0.03000
C2680       C  0.53700209  0.43176193  0.86551833    -0.03800
C2681       C  0.55604305  0.40478241  0.88433180     0.00000
C2682       C  0.59455865  0.40280561  0.88299780    -0.02600
C2683       C  0.61332046  0.48376013  0.82382755     0.36700
C2684       C  0.53531135  0.37652851  0.90156081     0.40300
C2685       C  0.53782332  0.48978848  0.83428607     0.39400
C2686       C  0.61199000  0.37286808  0.90100649     0.36300
C2687       C  0.66389795  0.48996836  0.88543980     0.37000
C2688       C  0.73042878  0.35504542  0.84726241     0.40300
N2689       N  0.52136881  0.51511529  0.82602132    -0.37800
N2690       N  0.62626790  0.50697446  0.80749310    -0.39400
N2691       N  0.51764628  0.35379087  0.91358160    -0.37100
N2692       N  0.62543956  0.34778131  0.91397817    -0.39500
N2693       N  0.63966735  0.33555708  0.83010919    -0.39300
N2694       N  0.74349867  0.32699156  0.84167204    -0.36900
N2695       N  0.75953161  0.50611366  0.89877563    -0.38000
N2696       N  0.65130538  0.51688151  0.89575313    -0.39600
C2697       C  0.96357520  0.20048203  0.99827504    -0.04600
C2698       C  0.92884942  0.17435690  0.75228973     0.09600
C2699       C  0.89411252  0.19213006  0.75515943    -0.02000
C2700       C  0.89088214  0.23040486  0.75307677    -0.00200
C2701       C  0.92137478  0.25260000  0.74790611    -0.03800
C2702       C  0.95636020  0.23848525  0.99551668     0.03200
C2703       C  0.93315372  0.13235707  0.75374108     0.10000
C2704       C  0.85982149  0.17297762  0.75727051     0.35900
C2705       C  0.98497507  0.26378550  0.98631597     0.39300
C2706       C  0.96130607  0.11531831  0.77493659    -0.04200
C2707       C  0.96779693  0.07741333  0.77221850     0.03000
C2708       C  0.94282157  0.05406883  0.75442686    -0.03800
C2709       C  0.92093896  0.07234801  0.98526887     0.00000
C2710       C  0.91865096  0.11070561  0.98377620    -0.02600
C2711       C  0.98428886  0.13487206  0.80071072     0.36700
C2712       C  0.89400387  0.05061936  0.96563254     0.40300
C2713       C  0.00191921  0.06237553  0.78560817     0.39400
C2714       C  0.89321346  0.12606350  0.95806547     0.36300
C2715       C  0.99986208  0.18770945  0.99003030     0.37000
C2716       C  0.85522373  0.24754319  0.75499836     0.40300
N2717       N  0.02943388  0.04985753  0.79469211    -0.37800
N2718       N  0.00499043  0.14671562  0.82173000    -0.39400
N2719       N  0.87192489  0.03448343  0.94946179    -0.37100
N2720       N  0.87184927  0.13812653  0.93839922    -0.39500
N2721       N  0.83022762  0.16191109  0.75567443    -0.39300
N2722       N  0.82677385  0.26096475  0.75632038    -0.36900
N2723       N  0.00760562  0.28421083  0.97875632    -0.38000
N2724       N  0.02896727  0.17801778  0.98323934    -0.39600
C2725       C  0.67920663  0.33012535  0.98429501    -0.04600
C2726       C  0.66571199  0.36449617  0.99663950     0.09600
C2727       C  0.69240786  0.39044980  0.75706844    -0.02000
C2728       C  0.72950198  0.38677906  0.75186975    -0.00200
C2729       C  0.74158661  0.35182426  0.99373509    -0.03800
C2730       C  0.71727638  0.32331117  0.98535507     0.03200
C2731       C  0.62659139  0.37692943  0.99165525     0.10000
C2732       C  0.68069987  0.42353282  0.77469300     0.35900
C2733       C  0.73175813  0.28790817  0.97611868     0.39300
C2734       C  0.59987750  0.35826345  0.75272930    -0.04200
C2735       C  0.56791845  0.37729723  0.76080423     0.03000
C2736       C  0.55687604  0.41140192  0.99734564    -0.03800
C2737       C  0.58503056  0.42789994  0.97785046     0.00000
C2738       C  0.61940675  0.41095624  0.97520823    -0.02600
C2739       C  0.60289032  0.32076137  0.76401832     0.36700
C2740       C  0.58225700  0.46536856  0.96695990     0.40300
C2741       C  0.55171230  0.36769814  0.79427521     0.39400
C2742       C  0.64873972  0.42994471  0.95775543     0.36300
C2743       C  0.65543634  0.30216093  0.96907001     0.37000
C2744       C  0.75250595  0.41911355  0.75206479     0.40300
N2745       N  0.54391382  0.35808650  0.82263206    -0.37800
N2746       N  0.60391922  0.29074407  0.77307053    -0.39400
N2747       N  0.58401524  0.49569740  0.95928751    -0.37100
N2748       N  0.67426578  0.44489811  0.94766398    -0.39500
N2749       N  0.67398826  0.45157009  0.78706150    -0.39300
N2750       N  0.77017013  0.44527780  0.75149749    -0.36900
N2751       N  0.74345043  0.25960995  0.96892229    -0.38000
N2752       N  0.63721411  0.27926853  0.95661751    -0.39600
loop_ 
_geom_bond_atom_site_label_1 
_geom_bond_atom_site_label_2 
_geom_bond_distance 
_geom_bond_site_symmetry_2 
_ccdc_geom_bond_type 
C1            C3   1.554       .  S
C1            C5   1.594       .  S
C1            C4   1.526       .  S
C1           C25   1.728       .  S
C2            C6   1.550       .  S
C2            C8   1.581       .  S
C2            C7   1.531       .  S
C2           C24   1.738       .  S
C3           C11   1.395       .  A
C3          C694   1.445       .  A
C4           C15   1.379       .  A
C4          C695   1.422       .  A
C5           C19   1.393       .  A
C5          C696   1.446       .  A
C6            C9   1.393       .  A
C6         C2067   1.444   1_554  A
C7           C13   1.377       .  A
C7         C2068   1.429   1_554  A
C8           C16   1.376       .  A
C8         C2069   1.448   1_554  A
C9           H22   1.077       .  S
C9         N2074   1.336   1_554  A
N10          C11   1.338       .  A
N10         C697   1.335       .  A
N10         N836   1.409       .  S
C11          H12   1.078       .  S
C13          H23   1.080       .  S
C13          N14   1.345   1_554  A
N14        C2079   1.344       .  A
N14        C2729   1.427       .  S
C15          H21   1.080       .  S
C15         N702   1.341       .  A
C16          H18   1.066       .  S
C16          N17   1.354   1_554  A
N17        C2083   1.362       .  A
N17         C637   1.452   1_556  S
C19          H20   1.079       .  S
C19         N705   1.364       .  A
C24          C26   1.557       .  S
C24          C28   1.530       .  S
C24          C27   1.585       .  S
C25          C29   1.553       .  S
C25          C31   1.527       .  S
C25          C30   1.594       .  S
C26          C34   1.396       .  A
C26          C29   1.441       .  A
C27          C38   1.380       .  A
C27          C30   1.447       .  A
C28          C42   1.376       .  A
C28          C31   1.424       .  A
C29          C32   1.394       .  A
C30          C36   1.394       .  A
C31          C39   1.379       .  A
C32          H45   1.078       .  S
C32          N33   1.339       .  A
N33          C34   1.341       .  A
N33         N171   1.414       .  S
C34          H35   1.078       .  S
C36          H46   1.078       .  S
C36          N37   1.362       .  A
N37          C38   1.358       .  A
N37         C609   1.454       .  S
C38          H44   1.070       .  S
C39          H41   1.080       .  S
C39          N40   1.341       .  A
N40          C42   1.343       .  A
N40         C588   1.422       .  S
C42          H43   1.077       .  S
C47          C49   1.571       .  S
C47          C51   1.568       .  S
C47          C50   1.559   1_545  S
C47          C71   1.714       .  S
C48          C52   1.563       .  S
C48          C54   1.563       .  S
C48          C53   1.551   1_545  S
C48          C70   1.712       .  S
C49          C57   1.386   1_545  A
C49        C2116   1.437   1_554  A
C50          C61   1.375       .  A
C50        C2117   1.434   1_554  A
C51          C65   1.392       .  A
C51        C2118   1.424   1_554  A
C52          C55   1.381   1_545  A
C52         C737   1.437       .  A
C53          C59   1.377       .  A
C53         C738   1.438       .  A
C54          C62   1.380       .  A
C54         C739   1.425       .  A
C55          H68   1.078       .  S
C55          N56   1.361       .  A
N56         C745   1.362       .  A
N56         N102   1.423       .  S
C57          H58   1.078       .  S
C57        N2120   1.364       .  A
C59          H69   1.078       .  S
C59          N60   1.349       .  A
N60         C749   1.359       .  A
N60         C560   1.442       .  S
C61          H67   1.076       .  S
C61        N2124   1.357   1_554  A
C62          H64   1.077       .  S
C62          N63   1.364       .  A
N63         C753   1.362       .  A
N63        C1213   1.463       .  S
C65          H66   1.073       .  S
C65        N2127   1.364   1_554  A
C70          C72   1.566   1_545  S
C70          C74   1.557       .  S
C70          C73   1.574       .  S
C71          C75   1.562   1_545  S
C71          C77   1.561       .  S
C71          C76   1.578       .  S
C72          C80   1.384       .  A
C72          C75   1.429       .  A
C73          C84   1.389       .  A
C73          C76   1.428       .  A
C74          C88   1.382       .  A
C74          C77   1.432       .  A
C75          C78   1.383       .  A
C76          C82   1.397       .  A
C77          C85   1.376       .  A
C78          H91   1.079       .  S
C78          N79   1.363       .  A
N79          C80   1.365       .  A
N79         N125   1.424       .  S
C80          H81   1.079       .  S
C82          H92   1.075       .  S
C82          N83   1.368       .  A
N83          C84   1.367       .  A
N83         C497   1.475       .  S
C84          H90   1.077       .  S
C85          H87   1.073       .  S
C85          N86   1.356       .  A
N86          C88   1.355       .  A
N86         C476   1.447       .  S
C88          H89   1.078       .  S
C93          C95   1.564       .  S
C93          C97   1.556       .  S
C93          C96   1.569       .  S
C93         C117   1.711       .  S
C94          C98   1.561       .  S
C94         C100   1.562       .  S
C94          C99   1.562       .  S
C94         C116   1.711       .  S
C95         C103   1.383       .  A
C95        C2162   1.433   1_554  A
C96         C107   1.386       .  A
C96        C2163   1.431   1_554  A
C97         C111   1.383       .  A
C97        C2164   1.430   1_554  A
C98         C101   1.381       .  A
C98         C783   1.430       .  A
C99         C105   1.385       .  A
C99         C784   1.429       .  A
C100        C108   1.376       .  A
C100        C785   1.433       .  A
C101        H114   1.079       .  S
C101        N102   1.363       .  A
N102        C791   1.363       .  A
C103        H104   1.079       .  S
C103       N2166   1.363       .  A
C105        H115   1.081       .  S
C105        N106   1.361       .  A
N106        C795   1.358       .  A
N106        C448   1.452       .  S
C107        H113   1.072       .  S
C107       N2170   1.361       .  A
C108        H110   1.074       .  S
C108        N109   1.358       .  A
N109        C799   1.360       .  A
N109       C1108   1.448       .  S
C111        H112   1.081       .  S
C111       N2173   1.359   1_554  A
C116        C118   1.562       .  S
C116        C120   1.558       .  S
C116        C119   1.551       .  S
C117        C121   1.571       .  S
C117        C123   1.568       .  S
C117        C122   1.555       .  S
C118        C126   1.383       .  A
C118        C121   1.439       .  A
C119        C130   1.371       .  A
C119        C122   1.434       .  A
C120        C134   1.375       .  A
C120        C123   1.428       .  A
C121        C124   1.387       .  A
C122        C128   1.377       .  A
C123        C131   1.390       .  A
C124        H137   1.079       .  S
C124        N125   1.363       .  A
N125        C126   1.359       .  A
C126        H127   1.079       .  S
C128        H138   1.081       .  S
C128        N129   1.354       .  A
N129        C130   1.352       .  A
N129        C392   1.436       .  S
C130        H136   1.073       .  S
C131        H133   1.081       .  S
C131        N132   1.364       .  A
N132        C134   1.358       .  A
N132        C357   1.451       .  S
C134        H135   1.075       .  S
C139        C141   1.547   1_455  S
C139        C143   1.534       .  S
C139        C142   1.582       .  S
C139        C163   1.736       .  S
C140        C144   1.558   1_455  S
C140        C146   1.532       .  S
C140        C145   1.589       .  S
C140        C162   1.730       .  S
C141        C149   1.391       .  A
C141        C832   1.443       .  A
C142        C153   1.377       .  A
C142        C833   1.446       .  A
C143        C157   1.377       .  A
C143        C834   1.427       .  A
C144        C147   1.395       .  A
C144       C2205   1.445   1_554  A
C145        C151   1.394       .  A
C145       C2206   1.445   1_554  A
C146        C154   1.381       .  A
C146       C2207   1.426   1_554  A
C147        H160   1.078       .  S
C147        N148   1.339   1_554  A
N148       C2213   1.337       .  A
N148       N2074   1.411       .  S
C149        H150   1.078       .  S
C149        N836   1.335       .  A
C151        H161   1.079       .  S
C151        N152   1.362       .  A
N152       C2217   1.358   1_554  A
N152       C2372   1.452   1_554  S
C153        H159   1.070       .  S
C153        N840   1.356       .  A
C154        H156   1.080       .  S
C154        N155   1.341       .  A
N155       C2221   1.342   1_554  A
N155        C336   1.424       .  S
C157        H158   1.077       .  S
C157        N843   1.344       .  A
C162        C164   1.555   1_455  S
C162        C166   1.590   1_455  S
C162        C165   1.532       .  S
C163        C167   1.558   1_455  S
C163        C169   1.576   1_455  S
C163        C168   1.532       .  S
C164        C172   1.395       .  A
C164        C167   1.443       .  A
C165        C176   1.381       .  A
C165        C168   1.427       .  A
C166        C180   1.392       .  A
C166        C169   1.446       .  A
C167        C170   1.397       .  A
C168        C174   1.377       .  A
C169        C177   1.374       .  A
C170        H183   1.078       .  S
C170        N171   1.340       .  A
N171        C172   1.338       .  A
C172        H173   1.078       .  S
C174        H184   1.079       .  S
C174        N175   1.345       .  A
N175        C176   1.343       .  A
N175        C245   1.425       .  S
C176        H182   1.081       .  S
C177        H179   1.068       .  S
C177        N178   1.354       .  A
N178        C180   1.360       .  A
N178        C280   1.448       .  S
C180        H181   1.080       .  S
O185        V193   1.927       .  S
O185       C2259   1.267       .  A
O186        V193   1.917   1_455  S
O186       C2260   1.260       .  A
O187        V193   1.916       .  S
O187        C197   1.268   1_565  A
O188        V193   1.893       .  S
O188        C198   1.262       .  A
O189        V194   1.891       .  S
O189        C886   1.259       .  A
O190        V194   1.910       .  S
O190        C885   1.262   1_565  A
O191        V194   1.922   1_455  S
O191        C196   1.269       .  A
O192        V194   1.931       .  S
O192        C195   1.271       .  A
V193       V2258   2.068   1_554  T
V194        V881   2.069       .  T
C195        O873   1.267       .  A
C195        C441   1.523       .  S
C196        O874   1.262       .  A
C196        C553   1.511       .  S
C197       O2254   1.262   1_544  A
C197        C644   1.507       .  S
C198       O2253   1.254   1_554  A
C198        C329   1.466       .  S
O199        V207   1.922       .  S
O199        C209   1.269       .  A
O200        V207   1.934       .  S
O200        C210   1.270   1_655  A
O201        V207   1.911       .  S
O201        C211   1.262       .  A
O202        V207   1.876   1_545  S
O202        C212   1.254       .  A
O203        V208   1.925   1_545  S
O203        C212   1.267       .  A
O204        V208   1.940       .  S
O204        C211   1.273       .  A
O205        V208   1.912       .  S
O205        C210   1.261   1_655  A
O206        V208   1.894       .  S
O206        C209   1.260       .  A
V207        V208   2.075       .  T
C209        C385   1.497       .  S
C210        C504   1.514       .  S
C211        C273   1.516       .  S
C212        C581   1.489       .  S
O213        V221   1.917       .  S
O213       C2287   1.262   1_554  A
O214        V221   1.913       .  S
O214       C2288   1.264   1_554  A
O215        V221   1.916       .  S
O215        C225   1.268   1_554  A
O216        V221   1.934       .  S
O216        C226   1.269   1_554  A
O217        V222   1.901       .  S
O217        C914   1.259       .  A
O218        V222   1.909       .  S
O218        C913   1.261       .  A
O219        V222   1.920       .  S
O219        C224   1.268       .  A
O220        V222   1.929       .  S
O220        C223   1.269       .  A
V221       V2286   2.065   1_554  T
V222        V909   2.064       .  T
C223        O901   1.263       .  A
C223        C672   1.506       .  S
C224        O902   1.263       .  A
C224        C301   1.516       .  S
C225       O2282   1.260       .  A
C225        C532   1.501       .  S
C226       O2281   1.260       .  A
C226        C413   1.506       .  S
O227        V235   1.936       .  S
O227        C237   1.271       .  A
O228        V235   1.944       .  S
O228        C238   1.269       .  A
O229        V235   1.899       .  S
O229        C239   1.262       .  A
O230        V235   1.900       .  S
O230        C240   1.261       .  A
O231        V236   1.894       .  S
O231        C240   1.257       .  A
O232        V236   1.905       .  S
O232        C239   1.261       .  A
O233        V236   1.917       .  S
O233        C238   1.267       .  A
O234        V236   1.939       .  S
O234        C237   1.270       .  A
V235        V236   2.074       .  T
C237        C469   1.537       .  S
C238        C364   1.533       .  S
C239        C616   1.498       .  S
C240        C252   1.476       .  S
C241        C242   1.420       .  A
C241        C246   1.385       .  A
C241        C259   1.442       .  S
C242        C243   1.434       .  A
C242        C247   1.514       .  S
C243        C244   1.415       .  A
C243        C248   1.448       .  S
C244        C245   1.398       .  A
C244        C260   1.447       .  S
C245        C246   1.396       .  A
C246        C249   1.455       .  S
C247        C250   1.428       .  A
C247        C254   1.419       .  A
C248        N265   1.158       .  T
C249        N267   1.158       .  T
C250        C251   1.405       .  A
C250        C255   1.449       .  S
C251        C252   1.400       .  A
C251        C257   1.447       .  S
C252        C253   1.411       .  A
C253        C254   1.407       .  A
C253        C256   1.448       .  S
C254        C258   1.449       .  S
C255        N262   1.155       .  T
C256        N263   1.155       .  T
C257        N261   1.155       .  T
C258        N264   1.158       .  T
C259        N268   1.152       .  T
C260        N266   1.157       .  T
C269        C270   1.430       .  A
C269        C274   1.414       .  A
C269        C287   1.449       .  S
C270        C271   1.434       .  A
C270        C275   1.548       .  S
C271        C272   1.417       .  A
C271        C276   1.449   1_655  S
C272        C273   1.401       .  A
C272        C288   1.434   1_655  S
C273        C274   1.409       .  A
C274        C277   1.446       .  S
C275        C278   1.438       .  A
C275        C282   1.430       .  A
C276        N293   1.157       .  T
C277        N295   1.158       .  T
C278        C279   1.424       .  A
C278        C283   1.453       .  S
C279        C280   1.403       .  A
C279        C285   1.448       .  S
C280        C281   1.402       .  A
C281        C282   1.412       .  A
C281        C284   1.452   1_655  S
C282        C286   1.442   1_655  S
C283        N290   1.158       .  T
C284        N291   1.157       .  T
C285        N289   1.157       .  T
C286        N292   1.154       .  T
C287        N296   1.158       .  T
C288        N294   1.150       .  T
C297        C298   1.429       .  A
C297        C302   1.421       .  A
C297        C315   1.448       .  S
C298        C987   1.423       .  A
C298        C303   1.541       .  S
C299        C300   1.415       .  A
C299       C2362   1.422   1_554  A
C299        C304   1.440       .  S
C300       C2365   1.404   1_554  A
C300        C316   1.433       .  S
C301        C302   1.407       .  A
C301        C988   1.403       .  A
C302        C305   1.434       .  S
C303        C310   1.427       .  A
C303        C994   1.429       .  A
C304        N321   1.153       .  T
C305        N323   1.150       .  T
C306        C307   1.431   1_556  A
C306       C2367   1.431       .  A
C306        C311   1.450   1_556  S
C307       C2372   1.409   1_554  A
C307        C313   1.447       .  S
C308        C309   1.402       .  A
C308        C995   1.409       .  A
C308        N840   1.452       .  S
C309        C310   1.411       .  A
C309        C312   1.452       .  S
C310        C314   1.443       .  S
C311        N318   1.158       .  T
C312        N319   1.157       .  T
C313        N317   1.157       .  T
C314        N320   1.153       .  T
C315        N324   1.158       .  T
C316        N322   1.150       .  T
C325        C330   1.407       .  A
C325       C1014   1.412       .  A
C325        C343   1.451       .  S
C326        C327   1.418   1_455  A
C326       C2389   1.412   1_554  A
C326        C331   1.499       .  S
C327        C328   1.397       .  A
C327        C332   1.443       .  S
C328        C329   1.399       .  A
C328        C344   1.447       .  S
C329       C2394   1.413   1_654  A
C330       C1017   1.413   1_455  A
C330        C333   1.443       .  S
C331        C334   1.420       .  A
C331       C2402   1.420   1_554  A
C332        N349   1.153       .  T
C333        N351   1.154       .  T
C334        C335   1.411       .  A
C334        C339   1.448       .  S
C335        C336   1.402       .  A
C335        C341   1.445       .  S
C336       C2401   1.400   1_554  A
C337        C338   1.387       .  A
C337       C1024   1.399       .  A
C337        C340   1.453   1_455  S
C338       C1019   1.420       .  A
C338        C342   1.449   1_455  S
C339        N346   1.157       .  T
C340        N347   1.158       .  T
C341        N345   1.156       .  T
C342        N348   1.154       .  T
C343        N352   1.158       .  T
C344        N350   1.155       .  T
C353        C354   1.429       .  A
C353        C358   1.408       .  A
C353        C371   1.444       .  S
C354        C355   1.428       .  A
C354        C359   1.541       .  S
C355        C356   1.428       .  A
C355        C360   1.448       .  S
C356        C357   1.409       .  A
C356        C372   1.447       .  S
C357        C358   1.399       .  A
C358        C361   1.453       .  S
C359        C362   1.416       .  A
C359        C366   1.420       .  A
C360        N377   1.158       .  T
C361        N379   1.157       .  T
C362        C363   1.420       .  A
C362        C367   1.444       .  S
C363        C364   1.418       .  A
C363        C369   1.438       .  S
C364        C365   1.419       .  A
C365        C366   1.423       .  A
C365        C368   1.440       .  S
C366        C370   1.446       .  S
C367        N374   1.153       .  T
C368        N375   1.152       .  T
C369        N373   1.155       .  T
C370        N376   1.158       .  T
C371        N380   1.154       .  T
C372        N378   1.157       .  T
C381        C382   1.426       .  A
C381        C386   1.403       .  A
C381        C399   1.447       .  S
C382        C383   1.428       .  A
C382        C387   1.527       .  S
C383        C384   1.413       .  A
C383        C388   1.450   1_565  S
C384        C385   1.400       .  A
C384        C400   1.439   1_565  S
C385        C386   1.393       .  A
C386        C389   1.425       .  S
C387        C390   1.430       .  A
C387        C394   1.428       .  A
C388        N405   1.158       .  T
C389        N407   1.147       .  T
C390        C391   1.413       .  A
C390        C395   1.450   1_565  S
C391        C392   1.401       .  A
C391        C397   1.449       .  S
C392        C393   1.402       .  A
C393        C394   1.402       .  A
C393        C396   1.451       .  S
C394        C398   1.448       .  S
C395        N402   1.158       .  T
C396        N403   1.158       .  T
C397        N401   1.157   1_565  T
C398        N404   1.156       .  T
C399        N408   1.156       .  T
C400        N406   1.154       .  T
C409        C410   1.431   1_554  A
C409        C414   1.419       .  A
C409        C427   1.448       .  S
C410       C2475   1.428       .  A
C410        C415   1.545       .  S
C411        C412   1.421       .  A
C411       C1098   1.433       .  A
C411        C416   1.447       .  S
C412       C1101   1.409       .  A
C412        C428   1.448       .  S
C413        C414   1.407   1_556  A
C413       C2476   1.408       .  A
C414        C417   1.444       .  S
C415        C422   1.439       .  A
C415       C2482   1.430       .  A
C416        N433   1.158       .  T
C417        N435   1.156       .  T
C418        C419   1.408       .  A
C418       C1103   1.435       .  A
C418        C423   1.444       .  S
C419       C1108   1.396       .  A
C419        C425   1.454       .  S
C420        C421   1.404       .  A
C420       C2483   1.396       .  A
C420       N2173   1.445       .  S
C421        C422   1.426       .  A
C421        C424   1.448   1_556  S
C422        C426   1.452   1_556  S
C423        N430   1.155       .  T
C424        N431   1.157       .  T
C425        N429   1.158       .  T
C426        N432   1.158       .  T
C427        N436   1.156       .  T
C428        N434   1.155       .  T
C437        C438   1.424       .  A
C437        C442   1.426       .  A
C437        C455   1.450       .  S
C438       C1127   1.423       .  A
C438        C443   1.549       .  S
C439        C440   1.419       .  A
C439       C2502   1.420       .  A
C439        C444   1.450       .  S
C440       C2505   1.416       .  A
C440        C456   1.435       .  S
C441        C442   1.421       .  A
C441       C1128   1.415       .  A
C442        C445   1.450       .  S
C443        C450   1.431       .  A
C443       C1134   1.431       .  A
C444        N461   1.156       .  T
C445        N463   1.157       .  T
C446        C447   1.428       .  A
C446       C2507   1.428       .  A
C446        C451   1.449       .  S
C447       C2512   1.411       .  A
C447        C453   1.447       .  S
C448        C449   1.404       .  A
C448       C1135   1.408       .  A
C449        C450   1.411       .  A
C449        C452   1.450       .  S
C450        C454   1.448       .  S
C451        N458   1.158       .  T
C452        N459   1.157       .  T
C453        N457   1.157       .  T
C454        N460   1.156       .  T
C455        N464   1.158       .  T
C456        N462   1.151       .  T
C465        C466   1.423       .  A
C465        C470   1.418       .  A
C465        C483   1.451       .  S
C466        C467   1.434       .  A
C466        C471   1.553       .  S
C467        C468   1.431       .  A
C467        C472   1.442       .  S
C468        C469   1.412       .  A
C468        C484   1.446       .  S
C469        C470   1.407       .  A
C470        C473   1.423       .  S
C471        C474   1.438       .  A
C471        C478   1.440       .  A
C472        N489   1.157       .  T
C473        N491   1.147       .  T
C474        C475   1.423       .  A
C474        C479   1.452       .  S
C475        C476   1.402       .  A
C475        C481   1.448       .  S
C476        C477   1.403       .  A
C477        C478   1.414       .  A
C477        C480   1.450       .  S
C478        C482   1.448       .  S
C479        N486   1.158       .  T
C480        N487   1.156       .  T
C481        N485   1.157       .  T
C482        N488   1.159       .  T
C483        N492   1.156       .  T
C484        N490   1.157       .  T
C493        C494   1.407       .  A
C493        C498   1.434       .  A
C493        C511   1.433       .  S
C494        C495   1.414       .  A
C494        C499   1.537   1_545  S
C495        C496   1.419       .  A
C495        C500   1.441   1_545  S
C496        C497   1.413       .  A
C496        C512   1.438       .  S
C497        C498   1.429       .  A
C498        C501   1.434   1_545  S
C499        C502   1.421       .  A
C499        C506   1.425   1_565  A
C500        N517   1.157       .  T
C501        N519   1.156       .  T
C502        C503   1.422       .  A
C502        C507   1.444       .  S
C503        C504   1.412       .  A
C503        C509   1.443       .  S
C504        C505   1.415   1_565  A
C505        C506   1.422       .  A
C505        C508   1.447       .  S
C506        C510   1.453       .  S
C507        N514   1.157       .  T
C508        N515   1.156       .  T
C509        N513   1.156       .  T
C510        N516   1.157       .  T
C511        N520   1.157       .  T
C512        N518   1.157       .  T
C521        C522   1.405   1_554  A
C521        C526   1.425       .  A
C521        C539   1.430       .  S
C522       C2587   1.412       .  A
C522        C527   1.523       .  S
C523        C524   1.413       .  A
C523       C1210   1.413       .  A
C523        C528   1.442       .  S
C524       C1213   1.411       .  A
C524        C540   1.438       .  S
C525        C526   1.429   1_556  A
C525       C2588   1.412       .  A
C525       N2127   1.466       .  S
C526        C529   1.437       .  S
C527        C534   1.425       .  A
C527       C2594   1.421       .  A
C528        N545   1.158       .  T
C529        N547   1.156       .  T
C530        C531   1.420       .  A
C530       C1215   1.424       .  A
C530        C535   1.446       .  S
C531       C1220   1.411       .  A
C531        C537   1.449       .  S
C532        C533   1.408       .  A
C532       C2595   1.412       .  A
C533        C534   1.414       .  A
C533        C536   1.445   1_556  S
C534        C538   1.453       .  S
C535        N542   1.158       .  T
C536        N543   1.155       .  T
C537        N541   1.157       .  T
C538        N544   1.158       .  T
C539        N548   1.156       .  T
C540        N546   1.157       .  T
C549        C554   1.412       .  A
C549       C2614   1.417       .  A
C549        C567   1.454       .  S
C550        C551   1.423       .  A
C550       C1237   1.416       .  A
C550        C555   1.529       .  S
C551        C552   1.420       .  A
C551        C556   1.441   1_565  S
C552        C553   1.412       .  A
C552        C568   1.445   1_565  S
C553       C1242   1.419       .  A
C554       C2617   1.419       .  A
C554        C557   1.442       .  S
C555        C558   1.433       .  A
C555       C1250   1.428   1_565  A
C556        N573   1.157       .  T
C557        N575   1.155       .  T
C558        C559   1.417       .  A
C558        C563   1.454       .  S
C559        C560   1.401       .  A
C559        C565   1.448       .  S
C560       C1249   1.406   1_565  A
C561        C562   1.407       .  A
C561       C2624   1.404   1_545  A
C561        C564   1.448       .  S
C562       C2619   1.430   1_545  A
C562        C566   1.448   1_556  S
C563        N570   1.158       .  T
C564        N571   1.155       .  T
C565        N569   1.157       .  T
C566        N572   1.159       .  T
C567        N576   1.156       .  T
C568        N574   1.154       .  T
C577        C578   1.423       .  A
C577        C582   1.410       .  A
C577        C595   1.444       .  S
C578        C579   1.403       .  A
C578        C583   1.500       .  S
C579        C580   1.399       .  A
C579        C584   1.449       .  S
C580        C581   1.416       .  A
C580        C596   1.438       .  S
C581        C582   1.405       .  A
C582        C585   1.444       .  S
C583        C586   1.414       .  A
C583        C590   1.428       .  A
C584        N601   1.158       .  T
C585        N603   1.155       .  T
C586        C587   1.385       .  A
C586        C591   1.443       .  S
C587        C588   1.399       .  A
C587        C593   1.455       .  S
C588        C589   1.398       .  A
C589        C590   1.412       .  A
C589        C592   1.448       .  S
C590        C594   1.448       .  S
C591        N598   1.153       .  T
C592        N599   1.157       .  T
C593        N597   1.158       .  T
C594        N600   1.158       .  T
C595        N604   1.155       .  T
C596        N602   1.152       .  T
C605        C606   1.433       .  A
C605        C610   1.428       .  A
C605        C623   1.452       .  S
C606        C607   1.429       .  A
C606        C611   1.546       .  S
C607        C608   1.416       .  A
C607        C612   1.441       .  S
C608        C609   1.403       .  A
C608        C624   1.452       .  S
C609        C610   1.407       .  A
C610        C613   1.447       .  S
C611        C614   1.429       .  A
C611        C618   1.433       .  A
C612        N629   1.154       .  T
C613        N631   1.157       .  T
C614        C615   1.413       .  A
C614        C619   1.446       .  S
C615        C616   1.402       .  A
C615        C621   1.442       .  S
C616        C617   1.398       .  A
C617        C618   1.418       .  A
C617        C620   1.446       .  S
C618        C622   1.435       .  S
C619        N626   1.157       .  T
C620        N627   1.154       .  T
C621        N625   1.153       .  T
C622        N628   1.153       .  T
C623        N632   1.158       .  T
C624        N630   1.157       .  T
C633        C638   1.431       .  A
C633       C1322   1.438       .  A
C633        C651   1.451       .  S
C634        C635   1.432       .  A
C634       C2697   1.430   1_554  A
C634        C639   1.545       .  S
C635        C636   1.414       .  A
C635        C640   1.442       .  S
C636        C637   1.402       .  A
C636        C652   1.454       .  S
C637       C2702   1.406   1_554  A
C638       C1325   1.404       .  A
C638        C641   1.447       .  S
C639        C642   1.433       .  A
C639       C2710   1.424   1_554  A
C640        N657   1.154       .  T
C641        N659   1.157   1_655  T
C642        C643   1.421       .  A
C642        C647   1.447       .  S
C643        C644   1.408       .  A
C643        C649   1.450   1_655  S
C644       C2709   1.409   1_554  A
C645        C646   1.423       .  A
C645       C1332   1.406       .  A
C645        C648   1.448       .  S
C646       C1327   1.432       .  A
C646        C650   1.437       .  S
C647        N654   1.158   1_655  T
C648        N655   1.156       .  T
C649        N653   1.157       .  T
C650        N656   1.153       .  T
C651        N660   1.158   1_655  T
C652        N658   1.157       .  T
C661        C662   1.435       .  A
C661        C666   1.415       .  A
C661        C679   1.446       .  S
C662       C1351   1.421       .  A
C662        C667   1.516       .  S
C663        C664   1.384       .  A
C663       C2726   1.420   1_554  A
C663        C668   1.442       .  S
C664       C2729   1.394   1_554  A
C664        C680   1.456       .  S
C665        C666   1.397       .  A
C665       C1352   1.395       .  A
C665        N702   1.423       .  S
C666        C669   1.449       .  S
C667        C674   1.424       .  A
C667       C1358   1.404       .  A
C668        N685   1.152       .  T
C669        N687   1.157       .  T
C670        C671   1.405       .  A
C670       C2731   1.404   1_554  A
C670        C675   1.450       .  S
C671       C2736   1.416   1_554  A
C671        C677   1.432       .  S
C672        C673   1.413       .  A
C672       C1359   1.414       .  A
C673        C674   1.415       .  A
C673        C676   1.444       .  S
C674        C678   1.448       .  S
C675        N682   1.158       .  T
C676        N683   1.156       .  T
C677        N681   1.153       .  T
C678        N684   1.155       .  T
C679        N688   1.158       .  T
C680        N686   1.158   1_554  T
C689        C691   1.556       .  S
C689        C693   1.590       .  S
C689        C692   1.528       .  S
C689        C713   1.731       .  S
C690        C694   1.548       .  S
C690        C696   1.583       .  S
C690        C695   1.529       .  S
C690        C712   1.732       .  S
C691        C699   1.396       .  A
C691       C1382   1.445       .  A
C692        C703   1.381       .  A
C692       C1383   1.426       .  A
C693        C707   1.391       .  A
C693       C1384   1.447       .  A
C694        C697   1.393       .  A
C695        C701   1.376       .  A
C696        C704   1.379       .  A
C697        H710   1.078       .  S
N698       C1385   1.335       .  A
N698        C699   1.338       .  A
N698       N1524   1.411       .  S
C699        H700   1.078       .  S
C701        H711   1.077       .  S
C701        N702   1.345       .  A
C703        H709   1.080       .  S
C703       N1390   1.341       .  A
C704        H706   1.072       .  S
C704        N705   1.358       .  A
N705       C1325   1.453       .  S
C707        H708   1.078       .  S
C707       N1393   1.361       .  A
C712        C714   1.553       .  S
C712        C716   1.528       .  S
C712        C715   1.581       .  S
C713        C717   1.558       .  S
C713        C719   1.534       .  S
C713        C718   1.592       .  S
C714        C722   1.394       .  A
C714        C717   1.441       .  A
C715        C726   1.378       .  A
C715        C718   1.446       .  A
C716        C730   1.375       .  A
C716        C719   1.423       .  A
C717        C720   1.396       .  A
C718        C724   1.395       .  A
C719        C727   1.383       .  A
C720        H733   1.078       .  S
C720        N721   1.340       .  A
N721        C722   1.339       .  A
N721        N859   1.414       .  S
C722        H723   1.077       .  S
C724        H734   1.079       .  S
C724        N725   1.362       .  A
N725        C726   1.356       .  A
N725       C1297   1.453       .  S
C726        H732   1.070       .  S
C727        H729   1.080       .  S
C727        N728   1.345       .  A
N728        C730   1.343       .  A
N728       C1276   1.427       .  S
C730        H731   1.079       .  S
C735        C737   1.567       .  S
C735        C739   1.566       .  S
C735        C738   1.568   1_545  S
C735        C759   1.721       .  S
C736        C740   1.568       .  S
C736        C742   1.564       .  S
C736        C741   1.553   1_545  S
C736        C758   1.717       .  S
C737        C745   1.384   1_545  A
C738        C749   1.377       .  A
C739        C753   1.390       .  A
C740       C1425   1.438       .  A
C740        C743   1.384   1_545  A
C741       C1426   1.437       .  A
C741        C747   1.377       .  A
C742       C1427   1.426       .  A
C742        C750   1.382       .  A
C743        H756   1.079       .  S
C743        N744   1.363       .  A
N744       C1433   1.362       .  A
N744        N790   1.424       .  S
C745        H746   1.078       .  S
C747        H757   1.079       .  S
C747        N748   1.351       .  A
N748       C1437   1.358       .  A
N748       C1248   1.442       .  S
C749        H755   1.073       .  S
C750        H752   1.079       .  S
C750        N751   1.365       .  A
N751       C1441   1.364       .  A
N751       C1901   1.464       .  S
C753        H754   1.074       .  S
C758        C760   1.563   1_545  S
C758        C762   1.560       .  S
C758        C761   1.573       .  S
C759        C763   1.564   1_545  S
C759        C765   1.568       .  S
C759        C764   1.572       .  S
C760        C768   1.382       .  A
C760        C763   1.429       .  A
C761        C772   1.386       .  A
C761        C764   1.428       .  A
C762        C776   1.384       .  A
C762        C765   1.437       .  A
C763        C766   1.383       .  A
C764        C770   1.392       .  A
C765        C773   1.378       .  A
C766        H779   1.079       .  S
C766        N767   1.364       .  A
N767        C768   1.364       .  A
N767        N813   1.424       .  S
C768        H769   1.079       .  S
C770        H780   1.075       .  S
C770        N771   1.365       .  A
N771        C772   1.367       .  A
N771       C1185   1.471       .  S
C772        H778   1.078       .  S
C773        H775   1.072       .  S
C773        N774   1.358       .  A
N774        C776   1.355       .  A
N774       C1164   1.451       .  S
C776        H777   1.078       .  S
C781        C783   1.564       .  S
C781        C785   1.563       .  S
C781        C784   1.562       .  S
C781        C805   1.710       .  S
C782        C786   1.561       .  S
C782        C788   1.563       .  S
C782        C787   1.562       .  S
C782        C804   1.715       .  S
C783        C791   1.382       .  A
C784        C795   1.379       .  A
C785        C799   1.387       .  A
C786       C1471   1.431       .  A
C786        C789   1.381       .  A
C787       C1472   1.431       .  A
C787        C793   1.384       .  A
C788       C1473   1.436       .  A
C788        C796   1.377       .  A
C789        H802   1.079       .  S
C789        N790   1.363       .  A
N790       C1479   1.365       .  A
C791        H792   1.079       .  S
C793        H803   1.081       .  S
C793        N794   1.360       .  A
N794       C1483   1.358       .  A
N794       C1136   1.450       .  S
C795        H801   1.071       .  S
C796        H798   1.076       .  S
C796        N797   1.357       .  A
N797       C1487   1.359       .  A
N797       C1796   1.448       .  S
C799        H800   1.080       .  S
C804        C806   1.564       .  S
C804        C808   1.559       .  S
C804        C807   1.555       .  S
C805        C809   1.566       .  S
C805        C811   1.560       .  S
C805        C810   1.563       .  S
C806        C814   1.384       .  A
C806        C809   1.437       .  A
C807        C818   1.374       .  A
C807        C810   1.439       .  A
C808        C822   1.374       .  A
C808        C811   1.427       .  A
C809        C812   1.385       .  A
C810        C816   1.383       .  A
C811        C819   1.385       .  A
C812        H825   1.078       .  S
C812        N813   1.361       .  A
N813        C814   1.361       .  A
C814        H815   1.078       .  S
C816        H826   1.081       .  S
C816        N817   1.357       .  A
N817        C818   1.352       .  A
N817       C1080   1.443       .  S
C818        H824   1.074       .  S
C819        H821   1.081       .  S
C819        N820   1.361       .  A
N820        C822   1.358       .  A
N820       C1045   1.446       .  S
C822        H823   1.075       .  S
C827        C829   1.548   1_455  S
C827        C831   1.533       .  S
C827        C830   1.583       .  S
C827        C851   1.736       .  S
C828        C832   1.553   1_455  S
C828        C834   1.532       .  S
C828        C833   1.592       .  S
C828        C850   1.729       .  S
C829        C837   1.391       .  A
C829       C1520   1.443       .  A
C830        C841   1.378       .  A
C830       C1521   1.447       .  A
C831        C845   1.376       .  A
C831       C1522   1.427       .  A
C832        C835   1.393       .  A
C833        C839   1.394       .  A
C834        C842   1.381       .  A
C835        H848   1.078       .  S
C835        N836   1.338       .  A
C837        H838   1.077       .  S
C837       N1524   1.336       .  A
C839        H849   1.079       .  S
C839        N840   1.361       .  A
C841        H847   1.070       .  S
C841       N1528   1.356       .  A
C842        H844   1.080       .  S
C842        N843   1.342       .  A
N843       C1024   1.425       .  S
C845        H846   1.077       .  S
C845       N1531   1.343       .  A
C850        C852   1.557   1_455  S
C850        C854   1.588   1_455  S
C850        C853   1.528       .  S
C851        C855   1.555   1_455  S
C851        C857   1.577   1_455  S
C851        C856   1.531       .  S
C852        C860   1.396       .  A
C852        C855   1.444       .  A
C853        C864   1.379       .  A
C853        C856   1.425       .  A
C854        C868   1.391       .  A
C854        C857   1.446       .  A
C855        C858   1.396       .  A
C856        C862   1.377       .  A
C857        C865   1.373       .  A
C858        H871   1.078       .  S
C858        N859   1.339       .  A
N859        C860   1.340       .  A
C860        H861   1.078       .  S
C862        H872   1.078       .  S
C862        N863   1.345       .  A
N863        C864   1.341       .  A
N863        C933   1.424       .  S
C864        H870   1.080       .  S
C865        H867   1.069       .  S
C865        N866   1.354       .  A
N866        C868   1.361       .  A
N866        C968   1.447       .  S
C868        H869   1.080       .  S
O873        V881   1.930       .  S
O874        V881   1.921   1_455  S
O875        V881   1.911       .  S
O875        C885   1.266   1_565  A
O876        V881   1.899       .  S
O876        C886   1.263       .  A
O877        V882   1.883       .  S
O877       C1574   1.257       .  A
O878        V882   1.903       .  S
O878       C1573   1.259   1_565  A
O879        V882   1.925   1_455  S
O879        C884   1.270       .  A
O880        V882   1.927       .  S
O880        C883   1.271       .  A
V882       V1569   2.067       .  T
C883       O1561   1.267       .  A
C883       C1129   1.518       .  S
C884       O1562   1.263       .  A
C884       C1241   1.515       .  S
C885       C1332   1.507       .  S
C886       C1017   1.476       .  S
O887        V895   1.926       .  S
O887        C897   1.266       .  A
O888        V895   1.925       .  S
O888        C898   1.267   1_655  A
O889        V895   1.907       .  S
O889        C899   1.262       .  A
O890        V895   1.876   1_545  S
O890        C900   1.256       .  A
O891        V896   1.928   1_545  S
O891        C900   1.264       .  A
O892        V896   1.939       .  S
O892        C899   1.274       .  A
O893        V896   1.914       .  S
O893        C898   1.262   1_655  A
O894        V896   1.899       .  S
O894        C897   1.264       .  A
V895        V896   2.071       .  T
C897       C1073   1.503       .  S
C898       C1192   1.510       .  S
C899        C961   1.512       .  S
C900       C1269   1.491       .  S
O901        V909   1.916       .  S
O902        V909   1.908       .  S
O903        V909   1.912       .  S
O903        C913   1.267       .  A
O904        V909   1.933       .  S
O904        C914   1.269       .  A
O905        V910   1.896       .  S
O905       C1602   1.258       .  A
O906        V910   1.907       .  S
O906       C1601   1.260       .  A
O907        V910   1.918       .  S
O907        C912   1.269       .  A
O908        V910   1.925       .  S
O908        C911   1.268       .  A
V910       V1597   2.066       .  T
C911       O1589   1.263       .  A
C911       C1360   1.503       .  S
C912       O1590   1.263       .  A
C912        C989   1.518       .  S
C913       C1220   1.500       .  S
C914       C1101   1.507       .  S
O915        V923   1.935       .  S
O915        C925   1.270       .  A
O916        V923   1.943       .  S
O916        C926   1.268       .  A
O917        V923   1.903       .  S
O917        C927   1.263       .  A
O918        V923   1.902       .  S
O918        C928   1.262       .  A
O919        V924   1.894       .  S
O919        C928   1.257       .  A
O920        V924   1.909       .  S
O920        C927   1.263       .  A
O921        V924   1.914       .  S
O921        C926   1.267       .  A
O922        V924   1.939       .  S
O922        C925   1.270       .  A
V923        V924   2.071       .  T
C925       C1157   1.534       .  S
C926       C1052   1.529       .  S
C927       C1304   1.504       .  S
C928        C940   1.478       .  S
C929        C930   1.421       .  A
C929        C934   1.385       .  A
C929        C947   1.442       .  S
C930        C931   1.435       .  A
C930        C935   1.515       .  S
C931        C932   1.414       .  A
C931        C936   1.448       .  S
C932        C933   1.397       .  A
C932        C948   1.448       .  S
C933        C934   1.396       .  A
C934        C937   1.456       .  S
C935        C938   1.428       .  A
C935        C942   1.419       .  A
C936        N953   1.158       .  T
C937        N955   1.158       .  T
C938        C939   1.406       .  A
C938        C943   1.448       .  S
C939        C940   1.400       .  A
C939        C945   1.446       .  S
C940        C941   1.410       .  A
C941        C942   1.408       .  A
C941        C944   1.447       .  S
C942        C946   1.450       .  S
C943        N950   1.155       .  T
C944        N951   1.155       .  T
C945        N949   1.155       .  T
C946        N952   1.158       .  T
C947        N956   1.153       .  T
C948        N954   1.157       .  T
C957        C958   1.430       .  A
C957        C962   1.414       .  A
C957        C975   1.449       .  S
C958        C959   1.433       .  A
C958        C963   1.545       .  S
C959        C960   1.415       .  A
C959        C964   1.448   1_655  S
C960        C961   1.400       .  A
C960        C976   1.435   1_655  S
C961        C962   1.410       .  A
C962        C965   1.446       .  S
C963        C966   1.437       .  A
C963        C970   1.429       .  A
C964        N981   1.157       .  T
C965        N983   1.158       .  T
C966        C967   1.424       .  A
C966        C971   1.453       .  S
C967        C968   1.404       .  A
C967        C973   1.448       .  S
C968        C969   1.402       .  A
C969        C970   1.410       .  A
C969        C972   1.452   1_655  S
C970        C974   1.442   1_655  S
C971        N978   1.158       .  T
C972        N979   1.157       .  T
C973        N977   1.157       .  T
C974        N980   1.154       .  T
C975        N984   1.158       .  T
C976        N982   1.150       .  T
C985        C986   1.431       .  A
C985        C990   1.421       .  A
C985       C1003   1.447       .  S
C986       C1675   1.423       .  A
C986        C991   1.542       .  S
C987        C988   1.412       .  A
C987        C992   1.441       .  S
C988       C1004   1.435       .  S
C989       C1676   1.405       .  A
C989        C990   1.405       .  A
C990        C993   1.436       .  S
C991       C1682   1.429       .  A
C991        C998   1.428       .  A
C992       N1009   1.153       .  T
C993       N1011   1.151       .  T
C994        C995   1.428       .  A
C994        C999   1.450       .  S
C995       C1001   1.447       .  S
C996       C1683   1.409       .  A
C996        C997   1.403       .  A
C996       N1528   1.454       .  S
C997        C998   1.413       .  A
C997       C1000   1.452       .  S
C998       C1002   1.442       .  S
C999       N1006   1.158       .  T
C1000      N1007   1.157       .  T
C1001      N1005   1.157       .  T
C1002      N1008   1.154       .  T
C1003      N1012   1.158       .  T
C1004      N1010   1.150       .  T
C1013      C1702   1.412       .  A
C1013      C1018   1.404       .  A
C1013      C1031   1.451       .  S
C1014      C1015   1.418   1_455  A
C1014      C1019   1.504       .  S
C1015      C1016   1.401       .  A
C1015      C1020   1.445       .  S
C1016      C1017   1.403       .  A
C1016      C1032   1.445       .  S
C1018      C1705   1.412   1_455  A
C1018      C1021   1.445       .  S
C1019      C1022   1.423       .  A
C1020      N1037   1.153       .  T
C1021      N1039   1.154       .  T
C1022      C1023   1.413       .  A
C1022      C1027   1.448       .  S
C1023      C1024   1.402       .  A
C1023      C1029   1.446       .  S
C1025      C1712   1.401       .  A
C1025      C1026   1.387       .  A
C1025      C1028   1.452   1_455  S
C1026      C1707   1.419       .  A
C1026      C1030   1.449   1_455  S
C1027      N1034   1.158       .  T
C1028      N1035   1.158       .  T
C1029      N1033   1.157       .  T
C1030      N1036   1.154       .  T
C1031      N1040   1.158       .  T
C1032      N1038   1.155       .  T
C1041      C1042   1.429       .  A
C1041      C1046   1.405       .  A
C1041      C1059   1.444       .  S
C1042      C1043   1.432       .  A
C1042      C1047   1.541       .  S
C1043      C1044   1.426       .  A
C1043      C1048   1.448       .  S
C1044      C1045   1.406       .  A
C1044      C1060   1.447       .  S
C1045      C1046   1.398       .  A
C1046      C1049   1.453       .  S
C1047      C1050   1.420       .  A
C1047      C1054   1.422       .  A
C1048      N1065   1.158       .  T
C1049      N1067   1.158       .  T
C1050      C1051   1.421       .  A
C1050      C1055   1.446       .  S
C1051      C1052   1.418       .  A
C1051      C1057   1.441       .  S
C1052      C1053   1.418       .  A
C1053      C1054   1.420       .  A
C1053      C1056   1.442       .  S
C1054      C1058   1.447       .  S
C1055      N1062   1.154       .  T
C1056      N1063   1.152       .  T
C1057      N1061   1.155       .  T
C1058      N1064   1.158       .  T
C1059      N1068   1.154       .  T
C1060      N1066   1.157       .  T
C1069      C1070   1.424       .  A
C1069      C1074   1.404       .  A
C1069      C1087   1.449       .  S
C1070      C1071   1.428       .  A
C1070      C1075   1.530       .  S
C1071      C1072   1.418       .  A
C1071      C1076   1.451   1_565  S
C1072      C1073   1.404       .  A
C1072      C1088   1.438   1_565  S
C1073      C1074   1.397       .  A
C1074      C1077   1.426       .  S
C1075      C1078   1.428       .  A
C1075      C1082   1.425       .  A
C1076      N1093   1.158       .  T
C1077      N1095   1.147       .  T
C1078      C1079   1.417       .  A
C1078      C1083   1.450   1_565  S
C1079      C1080   1.405       .  A
C1079      C1085   1.449       .  S
C1080      C1081   1.404       .  A
C1081      C1082   1.406       .  A
C1081      C1084   1.450       .  S
C1082      C1086   1.447       .  S
C1083      N1090   1.158       .  T
C1084      N1091   1.158       .  T
C1085      N1089   1.157   1_565  T
C1086      N1092   1.155       .  T
C1087      N1096   1.156       .  T
C1088      N1094   1.154       .  T
C1097      C1098   1.429       .  A
C1097      C1102   1.415       .  A
C1097      C1115   1.443       .  S
C1098      C1103   1.551       .  S
C1099      C1786   1.432       .  A
C1099      C1100   1.421       .  A
C1099      C1104   1.447       .  S
C1100      C1789   1.409       .  A
C1100      C1116   1.448       .  S
C1101      C1102   1.404       .  A
C1102      C1105   1.443       .  S
C1103      C1110   1.438       .  A
C1104      N1121   1.158       .  T
C1105      N1123   1.156       .  T
C1106      C1791   1.434       .  A
C1106      C1107   1.409       .  A
C1106      C1111   1.444       .  S
C1107      C1796   1.397       .  A
C1107      C1113   1.454       .  S
C1108      C1109   1.405       .  A
C1109      C1110   1.427       .  A
C1109      C1112   1.448       .  S
C1110      C1114   1.450       .  S
C1111      N1118   1.155       .  T
C1112      N1119   1.157       .  T
C1113      N1117   1.158       .  T
C1114      N1120   1.158       .  T
C1115      N1124   1.154       .  T
C1116      N1122   1.155       .  T
C1125      C1126   1.424       .  A
C1125      C1130   1.425       .  A
C1125      C1143   1.450       .  S
C1126      C1815   1.422       .  A
C1126      C1131   1.544       .  S
C1127      C1128   1.418       .  A
C1127      C1132   1.448       .  S
C1128      C1144   1.442       .  S
C1129      C1816   1.413       .  A
C1129      C1130   1.421       .  A
C1130      C1133   1.451       .  S
C1131      C1822   1.430       .  A
C1131      C1138   1.430       .  A
C1132      N1149   1.156       .  T
C1133      N1151   1.157       .  T
C1134      C1135   1.425       .  A
C1134      C1139   1.450       .  S
C1135      C1141   1.448       .  S
C1136      C1823   1.407       .  A
C1136      C1137   1.404       .  A
C1137      C1138   1.410       .  A
C1137      C1140   1.449       .  S
C1138      C1142   1.449       .  S
C1139      N1146   1.158       .  T
C1140      N1147   1.157       .  T
C1141      N1145   1.157       .  T
C1142      N1148   1.156       .  T
C1143      N1152   1.158       .  T
C1144      N1150   1.156   1_565  T
C1153      C1154   1.422       .  A
C1153      C1158   1.418       .  A
C1153      C1171   1.452       .  S
C1154      C1155   1.431       .  A
C1154      C1159   1.550       .  S
C1155      C1156   1.429       .  A
C1155      C1160   1.442       .  S
C1156      C1157   1.412       .  A
C1156      C1172   1.444       .  S
C1157      C1158   1.408       .  A
C1158      C1161   1.423       .  S
C1159      C1162   1.435       .  A
C1159      C1166   1.438       .  A
C1160      N1177   1.157       .  T
C1161      N1179   1.147       .  T
C1162      C1163   1.423       .  A
C1162      C1167   1.452       .  S
C1163      C1164   1.405       .  A
C1163      C1169   1.448       .  S
C1164      C1165   1.405       .  A
C1165      C1166   1.416       .  A
C1165      C1168   1.450       .  S
C1166      C1170   1.448       .  S
C1167      N1174   1.158       .  T
C1168      N1175   1.156       .  T
C1169      N1173   1.157       .  T
C1170      N1176   1.159       .  T
C1171      N1180   1.156       .  T
C1172      N1178   1.157       .  T
C1181      C1182   1.409       .  A
C1181      C1186   1.429       .  A
C1181      C1199   1.433       .  S
C1182      C1183   1.413       .  A
C1182      C1187   1.531   1_545  S
C1183      C1184   1.417       .  A
C1183      C1188   1.441   1_545  S
C1184      C1185   1.410       .  A
C1184      C1200   1.438       .  S
C1185      C1186   1.429       .  A
C1186      C1189   1.435   1_545  S
C1187      C1190   1.422       .  A
C1187      C1194   1.422   1_565  A
C1188      N1205   1.158       .  T
C1189      N1207   1.156       .  T
C1190      C1191   1.423       .  A
C1190      C1195   1.445       .  S
C1191      C1192   1.412       .  A
C1191      C1197   1.445       .  S
C1192      C1193   1.414   1_565  A
C1193      C1194   1.417       .  A
C1193      C1196   1.445       .  S
C1194      C1198   1.455       .  S
C1195      N1202   1.157       .  T
C1196      N1203   1.155       .  T
C1197      N1201   1.157       .  T
C1198      N1204   1.158       .  T
C1199      N1208   1.157       .  T
C1200      N1206   1.157       .  T
C1209      C1210   1.409       .  A
C1209      C1214   1.421       .  A
C1209      C1227   1.431       .  S
C1210      C1215   1.522       .  S
C1211      C1898   1.414       .  A
C1211      C1212   1.412       .  A
C1211      C1216   1.440       .  S
C1212      C1901   1.414       .  A
C1212      C1228   1.438       .  S
C1213      C1214   1.429       .  A
C1214      C1217   1.436       .  S
C1215      C1222   1.423       .  A
C1216      N1233   1.157       .  T
C1217      N1235   1.156       .  T
C1218      C1903   1.423       .  A
C1218      C1219   1.419       .  A
C1218      C1223   1.446       .  S
C1219      C1908   1.411       .  A
C1219      C1225   1.449       .  S
C1220      C1221   1.406       .  A
C1221      C1222   1.410       .  A
C1221      C1224   1.445       .  S
C1222      C1226   1.453       .  S
C1223      N1230   1.158       .  T
C1224      N1231   1.155       .  T
C1225      N1229   1.157       .  T
C1226      N1232   1.158       .  T
C1227      N1236   1.156       .  T
C1228      N1234   1.157       .  T
C1237      C1242   1.412       .  A
C1237      C1255   1.454       .  S
C1238      C1925   1.415       .  A
C1238      C1239   1.424       .  A
C1238      C1243   1.530       .  S
C1239      C1240   1.421       .  A
C1239      C1244   1.441   1_565  S
C1240      C1241   1.412       .  A
C1240      C1256   1.445   1_565  S
C1241      C1930   1.420       .  A
C1242      C1245   1.441       .  S
C1243      C1246   1.434       .  A
C1243      C1938   1.428   1_565  A
C1244      N1261   1.157       .  T
C1245      N1263   1.155       .  T
C1246      C1247   1.418       .  A
C1246      C1251   1.453       .  S
C1247      C1248   1.401       .  A
C1247      C1253   1.448       .  S
C1248      C1937   1.405   1_565  A
C1249      C1250   1.409       .  A
C1249      C1252   1.447       .  S
C1250      C1254   1.448       .  S
C1251      N1258   1.158       .  T
C1252      N1259   1.155       .  T
C1253      N1257   1.157       .  T
C1254      N1260   1.159       .  T
C1255      N1264   1.156       .  T
C1256      N1262   1.154       .  T
C1265      C1266   1.427       .  A
C1265      C1270   1.416       .  A
C1265      C1283   1.447       .  S
C1266      C1267   1.414       .  A
C1266      C1271   1.512       .  S
C1267      C1268   1.401       .  A
C1267      C1272   1.445       .  S
C1268      C1269   1.409       .  A
C1268      C1284   1.445       .  S
C1269      C1270   1.405       .  A
C1270      C1273   1.443       .  S
C1271      C1274   1.421       .  A
C1271      C1278   1.433       .  A
C1272      N1289   1.157       .  T
C1273      N1291   1.155       .  T
C1274      C1275   1.391       .  A
C1274      C1279   1.445       .  S
C1275      C1276   1.399       .  A
C1275      C1281   1.456       .  S
C1276      C1277   1.396       .  A
C1277      C1278   1.414       .  A
C1277      C1280   1.449       .  S
C1278      C1282   1.447       .  S
C1279      N1286   1.156       .  T
C1280      N1287   1.157       .  T
C1281      N1285   1.158       .  T
C1282      N1288   1.157       .  T
C1283      N1292   1.156       .  T
C1284      N1290   1.151       .  T
C1293      C1294   1.433       .  A
C1293      C1298   1.428       .  A
C1293      C1311   1.451       .  S
C1294      C1295   1.429       .  A
C1294      C1299   1.546       .  S
C1295      C1296   1.415       .  A
C1295      C1300   1.440       .  S
C1296      C1297   1.403       .  A
C1296      C1312   1.453       .  S
C1297      C1298   1.406       .  A
C1298      C1301   1.447       .  S
C1299      C1302   1.430       .  A
C1299      C1306   1.433       .  A
C1300      N1317   1.154       .  T
C1301      N1319   1.157       .  T
C1302      C1303   1.416       .  A
C1302      C1307   1.448       .  S
C1303      C1304   1.404       .  A
C1303      C1309   1.442       .  S
C1304      C1305   1.399       .  A
C1305      C1306   1.419       .  A
C1305      C1308   1.446       .  S
C1306      C1310   1.439       .  S
C1307      N1314   1.158       .  T
C1308      N1315   1.154       .  T
C1309      N1313   1.153       .  T
C1310      N1316   1.154       .  T
C1311      N1320   1.158       .  T
C1312      N1318   1.157       .  T
C1321      C2010   1.434       .  A
C1321      C1326   1.426       .  A
C1321      C1339   1.451       .  S
C1322      C1323   1.442       .  A
C1322      C1327   1.559       .  S
C1323      C1324   1.415       .  A
C1323      C1328   1.440       .  S
C1324      C1325   1.395       .  A
C1324      C1340   1.458       .  S
C1326      C2013   1.402       .  A
C1326      C1329   1.447       .  S
C1327      C1330   1.438       .  A
C1328      N1345   1.157       .  T
C1329      N1347   1.157   1_655  T
C1330      C1331   1.419       .  A
C1330      C1335   1.445       .  S
C1331      C1332   1.402       .  A
C1331      C1337   1.451   1_655  S
C1333      C2020   1.409       .  A
C1333      C1334   1.422       .  A
C1333      C1336   1.449       .  S
C1334      C2015   1.431       .  A
C1334      C1338   1.440       .  S
C1335      N1342   1.157   1_655  T
C1336      N1343   1.156       .  T
C1337      N1341   1.157       .  T
C1338      N1344   1.154       .  T
C1339      N1348   1.157   1_655  T
C1340      N1346   1.157       .  T
C1349      C1350   1.429       .  A
C1349      C1354   1.417       .  A
C1349      C1367   1.447       .  S
C1350      C2039   1.418       .  A
C1350      C1355   1.508       .  S
C1351      C1352   1.384       .  A
C1351      C1356   1.445       .  S
C1352      C1368   1.455       .  S
C1353      C2040   1.396       .  A
C1353      C1354   1.402       .  A
C1353      N1390   1.425       .  S
C1354      C1357   1.448       .  S
C1355      C2046   1.401       .  A
C1355      C1362   1.420       .  A
C1356      N1373   1.153       .  T
C1357      N1375   1.157       .  T
C1358      C1359   1.403       .  A
C1358      C1363   1.450       .  S
C1359      C1365   1.431       .  S
C1360      C2047   1.416       .  A
C1360      C1361   1.411       .  A
C1361      C1362   1.411       .  A
C1361      C1364   1.443       .  S
C1362      C1366   1.449       .  S
C1363      N1370   1.158       .  T
C1364      N1371   1.156       .  T
C1365      N1369   1.153       .  T
C1366      N1372   1.154       .  T
C1367      N1376   1.158       .  T
C1368      N1374   1.158       .  T
C1377      C1379   1.557       .  S
C1377      C1381   1.593       .  S
C1377      C1380   1.528       .  S
C1377      C1401   1.736       .  S
C1378      C1382   1.550       .  S
C1378      C1384   1.584       .  S
C1378      C1383   1.533       .  S
C1378      C1400   1.738       .  S
C1379      C1387   1.395       .  A
C1379      C2070   1.447       .  A
C1380      C1391   1.379       .  A
C1380      C2071   1.426       .  A
C1381      C1395   1.393       .  A
C1381      C2072   1.447       .  A
C1382      C1385   1.394       .  A
C1383      C1389   1.378       .  A
C1384      C1392   1.379       .  A
C1385      H1398   1.077       .  S
N1386      C2073   1.338       .  A
N1386      C1387   1.339       .  A
N1386      N2212   1.411       .  S
C1387      H1388   1.078       .  S
C1389      H1399   1.079       .  S
C1389      N1390   1.346       .  A
C1391      H1397   1.080       .  S
C1391      N2078   1.340       .  A
C1392      H1394   1.069       .  S
C1392      N1393   1.356       .  A
N1393      C2013   1.451       .  S
C1395      H1396   1.078       .  S
C1395      N2081   1.362       .  A
C1400      C1402   1.556       .  S
C1400      C1404   1.527       .  S
C1400      C1403   1.581       .  S
C1401      C1405   1.558       .  S
C1401      C1407   1.534       .  S
C1401      C1406   1.595       .  S
C1402      C1410   1.395       .  A
C1402      C1405   1.442       .  A
C1403      C1414   1.378       .  A
C1403      C1406   1.448       .  A
C1404      C1418   1.374       .  A
C1404      C1407   1.425       .  A
C1405      C1408   1.395       .  A
C1406      C1412   1.395       .  A
C1407      C1415   1.381       .  A
C1408      H1421   1.077       .  S
C1408      N1409   1.341       .  A
N1409      C1410   1.339       .  A
N1409      N1547   1.415       .  S
C1410      H1411   1.078       .  S
C1412      H1422   1.079       .  S
C1412      N1413   1.361       .  A
N1413      C1414   1.356       .  A
N1413      C1985   1.453       .  S
C1414      H1420   1.069       .  S
C1415      H1417   1.080       .  S
C1415      N1416   1.345       .  A
N1416      C1418   1.342       .  A
N1416      C1964   1.424       .  S
C1418      H1419   1.079       .  S
C1423      C1425   1.567       .  S
C1423      C1427   1.568       .  S
C1423      C1426   1.565   1_545  S
C1423      C1447   1.723       .  S
C1424      C1428   1.566       .  S
C1424      C1430   1.565       .  S
C1424      C1429   1.558   1_545  S
C1424      C1446   1.717       .  S
C1425      C1433   1.384   1_545  A
C1426      C1437   1.377       .  A
C1427      C1441   1.390       .  A
C1428      C2113   1.437       .  A
C1428      C1431   1.383   1_545  A
C1429      C2114   1.437       .  A
C1429      C1435   1.380       .  A
C1430      C2115   1.425       .  A
C1430      C1438   1.382       .  A
C1431      H1444   1.078       .  S
C1431      N1432   1.362       .  A
N1432      C2121   1.362       .  A
N1432      N1478   1.424       .  S
C1433      H1434   1.078       .  S
C1435      H1445   1.079       .  S
C1435      N1436   1.353       .  A
N1436      C2125   1.357       .  A
N1436      C1936   1.444       .  S
C1437      H1443   1.075       .  S
C1438      H1440   1.078       .  S
C1438      N1439   1.365       .  A
N1439      C2129   1.363       .  A
N1439      C2589   1.463       .  S
C1441      H1442   1.075       .  S
C1446      C1448   1.564   1_545  S
C1446      C1450   1.560       .  S
C1446      C1449   1.568       .  S
C1447      C1451   1.564   1_545  S
C1447      C1453   1.563       .  S
C1447      C1452   1.572       .  S
C1448      C1456   1.382       .  A
C1448      C1451   1.432       .  A
C1449      C1460   1.384       .  A
C1449      C1452   1.428       .  A
C1450      C1464   1.383       .  A
C1450      C1453   1.436       .  A
C1451      C1454   1.382       .  A
C1452      C1458   1.391       .  A
C1453      C1461   1.376       .  A
C1454      H1467   1.079       .  S
C1454      N1455   1.364       .  A
N1455      C1456   1.364       .  A
N1455      N1501   1.423       .  S
C1456      H1457   1.079       .  S
C1458      H1468   1.074       .  S
C1458      N1459   1.365       .  A
N1459      C1460   1.365       .  A
N1459      C1873   1.467       .  S
C1460      H1466   1.076       .  S
C1461      H1463   1.073       .  S
C1461      N1462   1.357       .  A
N1462      C1464   1.356       .  A
N1462      C1852   1.447       .  S
C1464      H1465   1.078       .  S
C1469      C1471   1.569       .  S
C1469      C1473   1.564       .  S
C1469      C1472   1.563       .  S
C1469      C1493   1.717       .  S
C1470      C1474   1.562       .  S
C1470      C1476   1.563       .  S
C1470      C1475   1.562       .  S
C1470      C1492   1.718       .  S
C1471      C1479   1.384       .  A
C1472      C1483   1.378       .  A
C1473      C1487   1.386       .  A
C1474      C2159   1.431       .  A
C1474      C1477   1.382       .  A
C1475      C2160   1.430       .  A
C1475      C1481   1.383       .  A
C1476      C2161   1.437       .  A
C1476      C1484   1.375       .  A
C1477      H1490   1.079       .  S
C1477      N1478   1.363       .  A
N1478      C2167   1.364       .  A
C1479      H1480   1.079       .  S
C1481      H1491   1.082       .  S
C1481      N1482   1.361       .  A
N1482      C2171   1.358       .  A
N1482      C1824   1.451       .  S
C1483      H1489   1.073       .  S
C1484      H1486   1.074       .  S
C1484      N1485   1.356       .  A
N1485      C2175   1.361       .  A
N1485      C2484   1.449       .  S
C1487      H1488   1.080       .  S
C1492      C1494   1.562       .  S
C1492      C1496   1.562       .  S
C1492      C1495   1.556       .  S
C1493      C1497   1.566       .  S
C1493      C1499   1.571       .  S
C1493      C1498   1.565       .  S
C1494      C1502   1.382       .  A
C1494      C1497   1.436       .  A
C1495      C1506   1.375       .  A
C1495      C1498   1.436       .  A
C1496      C1510   1.377       .  A
C1496      C1499   1.430       .  A
C1497      C1500   1.385       .  A
C1498      C1504   1.383       .  A
C1499      C1507   1.391       .  A
C1500      H1513   1.078       .  S
C1500      N1501   1.362       .  A
N1501      C1502   1.361       .  A
C1502      H1503   1.078       .  S
C1504      H1514   1.081       .  S
C1504      N1505   1.359       .  A
N1505      C1506   1.354       .  A
N1505      C1768   1.445       .  S
C1506      H1512   1.073       .  S
C1507      H1509   1.081       .  S
C1507      N1508   1.365       .  A
N1508      C1510   1.359       .  A
N1508      C1733   1.453       .  S
C1510      H1511   1.076       .  S
C1515      C1517   1.553   1_455  S
C1515      C1519   1.532       .  S
C1515      C1518   1.580       .  S
C1515      C1539   1.740       .  S
C1516      C1520   1.557   1_455  S
C1516      C1522   1.531       .  S
C1516      C1521   1.594       .  S
C1516      C1538   1.734       .  S
C1517      C1525   1.394       .  A
C1517      C2208   1.444       .  A
C1518      C1529   1.375       .  A
C1518      C2209   1.447       .  A
C1519      C1533   1.377       .  A
C1519      C2210   1.430       .  A
C1520      C1523   1.395       .  A
C1521      C1527   1.396       .  A
C1522      C1530   1.380       .  A
C1523      H1536   1.078       .  S
C1523      N1524   1.339       .  A
C1525      H1526   1.078       .  S
C1525      N2212   1.338       .  A
C1527      H1537   1.080       .  S
C1527      N1528   1.363       .  A
C1529      H1535   1.070       .  S
C1529      N2216   1.355       .  A
C1530      H1532   1.081       .  S
C1530      N1531   1.341       .  A
N1531      C1712   1.425       .  S
C1533      H1534   1.079       .  S
C1533      N2219   1.342       .  A
C1538      C1540   1.560   1_455  S
C1538      C1542   1.592       .  S
C1538      C1541   1.535       .  S
C1539      C1543   1.554   1_455  S
C1539      C1545   1.582   1_455  S
C1539      C1544   1.534       .  S
C1540      C1548   1.398       .  A
C1540      C1543   1.443       .  A
C1541      C1552   1.383       .  A
C1541      C1544   1.426       .  A
C1542      C1556   1.395   1_455  A
C1542      C1545   1.447   1_455  A
C1543      C1546   1.396       .  A
C1544      C1550   1.378       .  A
C1545      C1553   1.376       .  A
C1546      H1559   1.078       .  S
C1546      N1547   1.338       .  A
N1547      C1548   1.340       .  A
C1548      H1549   1.078       .  S
C1550      H1560   1.078       .  S
C1550      N1551   1.346       .  A
N1551      C1552   1.345       .  A
N1551      C1621   1.429       .  S
C1552      H1558   1.080       .  S
C1553      H1555   1.070       .  S
C1553      N1554   1.355       .  A
N1554      C1556   1.361       .  A
N1554      C1656   1.452       .  S
C1556      H1557   1.079       .  S
O1561      V1569   1.925       .  S
O1562      V1569   1.925   1_455  S
O1563      V1569   1.909       .  S
O1563      C1573   1.268   1_565  A
O1564      V1569   1.897       .  S
O1564      C1574   1.262       .  A
O1565      V1570   1.882       .  S
O1565      C2262   1.257       .  A
O1566      V1570   1.908       .  S
O1566      C2261   1.259   1_565  A
O1567      V1570   1.926   1_455  S
O1567      C1572   1.269       .  A
O1568      V1570   1.925       .  S
O1568      C1571   1.270       .  A
V1570      V2257   2.069       .  T
C1571      O2249   1.266       .  A
C1571      C1817   1.522       .  S
C1572      O2250   1.262       .  A
C1572      C1929   1.515       .  S
C1573      C2020   1.501       .  S
C1574      C1705   1.472       .  S
O1575      V1583   1.923       .  S
O1575      C1585   1.266       .  A
O1576      V1583   1.923       .  S
O1576      C1586   1.267   1_655  A
O1577      V1583   1.909       .  S
O1577      C1587   1.262       .  A
O1578      V1583   1.878   1_545  S
O1578      C1588   1.257       .  A
O1579      V1584   1.928   1_545  S
O1579      C1588   1.265       .  A
O1580      V1584   1.940       .  S
O1580      C1587   1.274       .  A
O1581      V1584   1.910   1_455  S
O1581      C1586   1.261       .  A
O1582      V1584   1.897       .  S
O1582      C1585   1.263       .  A
V1583      V1584   2.070       .  T
C1585      C1761   1.499       .  S
C1586      C1880   1.504       .  S
C1587      C1649   1.516       .  S
C1588      C1957   1.491       .  S
O1589      V1597   1.914       .  S
O1590      V1597   1.911       .  S
O1591      V1597   1.911       .  S
O1591      C1601   1.267       .  A
O1592      V1597   1.930       .  S
O1592      C1602   1.269       .  A
O1593      V1598   1.891       .  S
O1593      C2290   1.259       .  A
O1594      V1598   1.905       .  S
O1594      C2289   1.259       .  A
O1595      V1598   1.919       .  S
O1595      C1600   1.270       .  A
O1596      V1598   1.925       .  S
O1596      C1599   1.269       .  A
V1598      V2285   2.067       .  T
C1599      O2277   1.262       .  A
C1599      C2048   1.502       .  S
C1600      O2278   1.263       .  A
C1600      C1677   1.518       .  S
C1601      C1908   1.499       .  S
C1602      C1789   1.503       .  S
O1603      V1611   1.934       .  S
O1603      C1613   1.269       .  A
O1604      V1611   1.944       .  S
O1604      C1614   1.270       .  A
O1605      V1611   1.900       .  S
O1605      C1615   1.262       .  A
O1606      V1611   1.909       .  S
O1606      C1616   1.263       .  A
O1607      V1612   1.891       .  S
O1607      C1616   1.257       .  A
O1608      V1612   1.899       .  S
O1608      C1615   1.262       .  A
O1609      V1612   1.915       .  S
O1609      C1614   1.269       .  A
O1610      V1612   1.933       .  S
O1610      C1613   1.268       .  A
V1611      V1612   2.074       .  T
C1613      C1845   1.530       .  S
C1614      C1740   1.533       .  S
C1615      C1992   1.494       .  S
C1616      C1628   1.481       .  S
C1617      C1618   1.420       .  A
C1617      C1622   1.388       .  A
C1617      C1635   1.443       .  S
C1618      C1619   1.432       .  A
C1618      C1623   1.516       .  S
C1619      C1620   1.417       .  A
C1619      C1624   1.448       .  S
C1620      C1621   1.400       .  A
C1620      C1636   1.447       .  S
C1621      C1622   1.397       .  A
C1622      C1625   1.455       .  S
C1623      C1626   1.427       .  A
C1623      C1630   1.418       .  A
C1624      N1641   1.158       .  T
C1625      N1643   1.158       .  T
C1626      C1627   1.408       .  A
C1626      C1631   1.450       .  S
C1627      C1628   1.402       .  A
C1627      C1633   1.445       .  S
C1628      C1629   1.410       .  A
C1629      C1630   1.407       .  A
C1629      C1632   1.446       .  S
C1630      C1634   1.449       .  S
C1631      N1638   1.155       .  T
C1632      N1639   1.155       .  T
C1633      N1637   1.155       .  T
C1634      N1640   1.158       .  T
C1635      N1644   1.153       .  T
C1636      N1642   1.157       .  T
C1645      C1646   1.434       .  A
C1645      C1650   1.414       .  A
C1645      C1663   1.449       .  S
C1646      C1647   1.435       .  A
C1646      C1651   1.554       .  S
C1647      C1648   1.418       .  A
C1647      C1652   1.446   1_655  S
C1648      C1649   1.400       .  A
C1648      C1664   1.434   1_655  S
C1649      C1650   1.407       .  A
C1650      C1653   1.446       .  S
C1651      C1654   1.439       .  A
C1651      C1658   1.432       .  A
C1652      N1669   1.156       .  T
C1653      N1671   1.158       .  T
C1654      C1655   1.426       .  A
C1654      C1659   1.453       .  S
C1655      C1656   1.404       .  A
C1655      C1661   1.448       .  S
C1656      C1657   1.402       .  A
C1657      C1658   1.414       .  A
C1657      C1660   1.452   1_655  S
C1658      C1662   1.443   1_655  S
C1659      N1666   1.158       .  T
C1660      N1667   1.157       .  T
C1661      N1665   1.157       .  T
C1662      N1668   1.154       .  T
C1663      N1672   1.158       .  T
C1664      N1670   1.150       .  T
C1673      C1674   1.428       .  A
C1673      C1678   1.420       .  A
C1673      C1691   1.447       .  S
C1674      C2363   1.421       .  A
C1674      C1679   1.538       .  S
C1675      C1676   1.415       .  A
C1675      C1680   1.445       .  S
C1676      C1692   1.434       .  S
C1677      C2364   1.406       .  A
C1677      C1678   1.408       .  A
C1678      C1681   1.437       .  S
C1679      C2370   1.428       .  A
C1679      C1686   1.427       .  A
C1680      N1697   1.154       .  T
C1681      N1699   1.151       .  T
C1682      C1683   1.429       .  A
C1682      C1687   1.450       .  S
C1683      C1689   1.447       .  S
C1684      C2371   1.408       .  A
C1684      C1685   1.402       .  A
C1684      N2216   1.451       .  S
C1685      C1686   1.411       .  A
C1685      C1688   1.452       .  S
C1686      C1690   1.443       .  S
C1687      N1694   1.158       .  T
C1688      N1695   1.157       .  T
C1689      N1693   1.157       .  T
C1690      N1696   1.153       .  T
C1691      N1700   1.158       .  T
C1692      N1698   1.150       .  T
C1701      C2390   1.410       .  A
C1701      C1706   1.404       .  A
C1701      C1719   1.451       .  S
C1702      C1703   1.420   1_455  A
C1702      C1707   1.502       .  S
C1703      C1704   1.401       .  A
C1703      C1708   1.444       .  S
C1704      C1705   1.402       .  A
C1704      C1720   1.446       .  S
C1706      C2393   1.413   1_455  A
C1706      C1709   1.445       .  S
C1707      C1710   1.423       .  A
C1708      N1725   1.154       .  T
C1709      N1727   1.154       .  T
C1710      C1711   1.411       .  A
C1710      C1715   1.448       .  S
C1711      C1712   1.401       .  A
C1711      C1717   1.447       .  S
C1713      C2400   1.399       .  A
C1713      C1714   1.385       .  A
C1713      C1716   1.453   1_455  S
C1714      C2395   1.416       .  A
C1714      C1718   1.445   1_455  S
C1715      N1722   1.158       .  T
C1716      N1723   1.158       .  T
C1717      N1721   1.157       .  T
C1718      N1724   1.152       .  T
C1719      N1728   1.158       .  T
C1720      N1726   1.155       .  T
C1729      C1730   1.432       .  A
C1729      C1734   1.409       .  A
C1729      C1747   1.444       .  S
C1730      C1731   1.430       .  A
C1730      C1735   1.546       .  S
C1731      C1732   1.430       .  A
C1731      C1736   1.448       .  S
C1732      C1733   1.409       .  A
C1732      C1748   1.447       .  S
C1733      C1734   1.398       .  A
C1734      C1737   1.454       .  S
C1735      C1738   1.417       .  A
C1735      C1742   1.423       .  A
C1736      N1753   1.158       .  T
C1737      N1755   1.158       .  T
C1738      C1739   1.421       .  A
C1738      C1743   1.441       .  S
C1739      C1740   1.418       .  A
C1739      C1745   1.439       .  S
C1740      C1741   1.419       .  A
C1741      C1742   1.424       .  A
C1741      C1744   1.442       .  S
C1742      C1746   1.446       .  S
C1743      N1750   1.152       .  T
C1744      N1751   1.152       .  T
C1745      N1749   1.155       .  T
C1746      N1752   1.157       .  T
C1747      N1756   1.155       .  T
C1748      N1754   1.157       .  T
C1757      C1758   1.426       .  A
C1757      C1762   1.403       .  A
C1757      C1775   1.450       .  S
C1758      C1759   1.430       .  A
C1758      C1763   1.532       .  S
C1759      C1760   1.418       .  A
C1759      C1764   1.451   1_565  S
C1760      C1761   1.403       .  A
C1760      C1776   1.440   1_565  S
C1761      C1762   1.396       .  A
C1762      C1765   1.427       .  S
C1763      C1766   1.428       .  A
C1763      C1770   1.426       .  A
C1764      N1781   1.158       .  T
C1765      N1783   1.147       .  T
C1766      C1767   1.419       .  A
C1766      C1771   1.451   1_565  S
C1767      C1768   1.407       .  A
C1767      C1773   1.448       .  S
C1768      C1769   1.404       .  A
C1769      C1770   1.406       .  A
C1769      C1772   1.450       .  S
C1770      C1774   1.447       .  S
C1771      N1778   1.158       .  T
C1772      N1779   1.157       .  T
C1773      N1777   1.157   1_565  T
C1774      N1780   1.155       .  T
C1775      N1784   1.157       .  T
C1776      N1782   1.154       .  T
C1785      C1786   1.431       .  A
C1785      C1790   1.415       .  A
C1785      C1803   1.445       .  S
C1786      C1791   1.549       .  S
C1787      C2474   1.431       .  A
C1787      C1788   1.415       .  A
C1787      C1792   1.445       .  S
C1788      C2477   1.406       .  A
C1788      C1804   1.450       .  S
C1789      C1790   1.402       .  A
C1790      C1793   1.445       .  S
C1791      C1798   1.439       .  A
C1792      N1809   1.158       .  T
C1793      N1811   1.156       .  T
C1794      C2479   1.434       .  A
C1794      C1795   1.410       .  A
C1794      C1799   1.446       .  S
C1795      C2484   1.399       .  A
C1795      C1801   1.453       .  S
C1796      C1797   1.403       .  A
C1797      C1798   1.427       .  A
C1797      C1800   1.448       .  S
C1798      C1802   1.451       .  S
C1799      N1806   1.156       .  T
C1800      N1807   1.157       .  T
C1801      N1805   1.158       .  T
C1802      N1808   1.158       .  T
C1803      N1812   1.155       .  T
C1804      N1810   1.156       .  T
C1813      C1814   1.422       .  A
C1813      C1818   1.426       .  A
C1813      C1831   1.450       .  S
C1814      C2503   1.421       .  A
C1814      C1819   1.545       .  S
C1815      C1816   1.416       .  A
C1815      C1820   1.449       .  S
C1816      C1832   1.442       .  S
C1817      C2504   1.413       .  A
C1817      C1818   1.422       .  A
C1818      C1821   1.450       .  S
C1819      C2510   1.430       .  A
C1819      C1826   1.430       .  A
C1820      N1837   1.156       .  T
C1821      N1839   1.156       .  T
C1822      C1823   1.423       .  A
C1822      C1827   1.450       .  S
C1823      C1829   1.448       .  S
C1824      C2511   1.409       .  A
C1824      C1825   1.403       .  A
C1825      C1826   1.408       .  A
C1825      C1828   1.450       .  S
C1826      C1830   1.449       .  S
C1827      N1834   1.158       .  T
C1828      N1835   1.157       .  T
C1829      N1833   1.157       .  T
C1830      N1836   1.156       .  T
C1831      N1840   1.157       .  T
C1832      N1838   1.156   1_565  T
C1841      C1842   1.424       .  A
C1841      C1846   1.418       .  A
C1841      C1859   1.452       .  S
C1842      C1843   1.433       .  A
C1842      C1847   1.551       .  S
C1843      C1844   1.428       .  A
C1843      C1848   1.441       .  S
C1844      C1845   1.408       .  A
C1844      C1860   1.445       .  S
C1845      C1846   1.408       .  A
C1846      C1849   1.425       .  S
C1847      C1850   1.437       .  A
C1847      C1854   1.440       .  A
C1848      N1865   1.157       .  T
C1849      N1867   1.148       .  T
C1850      C1851   1.422       .  A
C1850      C1855   1.452       .  S
C1851      C1852   1.402       .  A
C1851      C1857   1.448       .  S
C1852      C1853   1.403       .  A
C1853      C1854   1.414       .  A
C1853      C1856   1.450       .  S
C1854      C1858   1.448       .  S
C1855      N1862   1.158       .  T
C1856      N1863   1.156       .  T
C1857      N1861   1.157       .  T
C1858      N1864   1.159       .  T
C1859      N1868   1.156       .  T
C1860      N1866   1.157       .  T
C1869      C1870   1.405       .  A
C1869      C1874   1.426       .  A
C1869      C1887   1.434       .  S
C1870      C1871   1.410       .  A
C1870      C1875   1.522   1_545  S
C1871      C1872   1.414       .  A
C1871      C1876   1.441   1_545  S
C1872      C1873   1.411       .  A
C1872      C1888   1.438       .  S
C1873      C1874   1.428       .  A
C1874      C1877   1.434   1_545  S
C1875      C1878   1.419       .  A
C1875      C1882   1.420   1_565  A
C1876      N1893   1.157       .  T
C1877      N1895   1.156       .  T
C1878      C1879   1.419       .  A
C1878      C1883   1.446       .  S
C1879      C1880   1.412       .  A
C1879      C1885   1.444       .  S
C1880      C1881   1.415   1_565  A
C1881      C1882   1.415       .  A
C1881      C1884   1.446       .  S
C1882      C1886   1.455       .  S
C1883      N1890   1.157       .  T
C1884      N1891   1.155       .  T
C1885      N1889   1.157       .  T
C1886      N1892   1.158       .  T
C1887      N1896   1.157       .  T
C1888      N1894   1.157       .  T
C1897      C1898   1.408       .  A
C1897      C1902   1.421       .  A
C1897      C1915   1.430       .  S
C1898      C1903   1.522       .  S
C1899      C2586   1.412       .  A
C1899      C1900   1.412       .  A
C1899      C1904   1.441       .  S
C1900      C2589   1.412       .  A
C1900      C1916   1.438       .  S
C1901      C1902   1.429       .  A
C1902      C1905   1.438       .  S
C1903      C1910   1.424       .  A
C1904      N1921   1.157       .  T
C1905      N1923   1.156       .  T
C1906      C2591   1.422       .  A
C1906      C1907   1.418       .  A
C1906      C1911   1.446       .  S
C1907      C2596   1.410       .  A
C1907      C1913   1.449       .  S
C1908      C1909   1.406       .  A
C1909      C1910   1.410       .  A
C1909      C1912   1.446       .  S
C1910      C1914   1.453       .  S
C1911      N1918   1.158       .  T
C1912      N1919   1.155       .  T
C1913      N1917   1.156       .  T
C1914      N1920   1.158       .  T
C1915      N1924   1.157       .  T
C1916      N1922   1.157       .  T
C1925      C1930   1.413       .  A
C1925      C1943   1.455       .  S
C1926      C2613   1.416       .  A
C1926      C1927   1.426       .  A
C1926      C1931   1.536       .  S
C1927      C1928   1.423       .  A
C1927      C1932   1.440   1_565  S
C1928      C1929   1.411       .  A
C1928      C1944   1.446   1_565  S
C1929      C2618   1.419       .  A
C1930      C1933   1.440       .  S
C1931      C1934   1.435       .  A
C1931      C2626   1.430   1_565  A
C1932      N1949   1.157       .  T
C1933      N1951   1.155       .  T
C1934      C1935   1.419       .  A
C1934      C1939   1.453       .  S
C1935      C1936   1.401       .  A
C1935      C1941   1.448       .  S
C1936      C2625   1.405   1_565  A
C1937      C1938   1.408       .  A
C1937      C1940   1.446       .  S
C1938      C1942   1.448       .  S
C1939      N1946   1.158       .  T
C1940      N1947   1.155       .  T
C1941      N1945   1.157       .  T
C1942      N1948   1.159       .  T
C1943      N1952   1.156       .  T
C1944      N1950   1.155       .  T
C1953      C1954   1.426       .  A
C1953      C1958   1.417       .  A
C1953      C1971   1.446       .  S
C1954      C1955   1.407       .  A
C1954      C1959   1.507       .  S
C1955      C1956   1.399       .  A
C1955      C1960   1.444       .  S
C1956      C1957   1.410       .  A
C1956      C1972   1.442       .  S
C1957      C1958   1.406       .  A
C1958      C1961   1.444       .  S
C1959      C1962   1.418       .  A
C1959      C1966   1.432       .  A
C1960      N1977   1.155       .  T
C1961      N1979   1.155       .  T
C1962      C1963   1.389       .  A
C1962      C1967   1.446       .  S
C1963      C1964   1.401       .  A
C1963      C1969   1.456       .  S
C1964      C1965   1.395       .  A
C1965      C1966   1.412       .  A
C1965      C1968   1.449       .  S
C1966      C1970   1.447       .  S
C1967      N1974   1.156       .  T
C1968      N1975   1.157       .  T
C1969      N1973   1.158       .  T
C1970      N1976   1.157       .  T
C1971      N1980   1.156       .  T
C1972      N1978   1.150       .  T
C1981      C1982   1.432       .  A
C1981      C1986   1.426       .  A
C1981      C1999   1.452       .  S
C1982      C1983   1.428       .  A
C1982      C1987   1.543       .  S
C1983      C1984   1.414       .  A
C1983      C1988   1.442       .  S
C1984      C1985   1.404       .  A
C1984      C2000   1.452       .  S
C1985      C1986   1.406       .  A
C1986      C1989   1.447       .  S
C1987      C1990   1.429       .  A
C1987      C1994   1.432       .  A
C1988      N2005   1.154       .  T
C1989      N2007   1.157       .  T
C1990      C1991   1.414       .  A
C1990      C1995   1.448       .  S
C1991      C1992   1.404       .  A
C1991      C1997   1.444       .  S
C1992      C1993   1.398       .  A
C1993      C1994   1.415       .  A
C1993      C1996   1.449       .  S
C1994      C1998   1.436       .  S
C1995      N2002   1.158       .  T
C1996      N2003   1.154       .  T
C1997      N2001   1.154       .  T
C1998      N2004   1.153       .  T
C1999      N2008   1.158       .  T
C2000      N2006   1.157       .  T
C2009      C2698   1.436       .  A
C2009      C2014   1.429       .  A
C2009      C2027   1.451       .  S
C2010      C2011   1.441       .  A
C2010      C2015   1.552       .  S
C2011      C2012   1.417       .  A
C2011      C2016   1.444       .  S
C2012      C2013   1.399       .  A
C2012      C2028   1.456       .  S
C2014      C2701   1.404       .  A
C2014      C2017   1.448       .  S
C2015      C2018   1.436       .  A
C2016      N2033   1.158       .  T
C2017      N2035   1.157   1_655  T
C2018      C2019   1.413       .  A
C2018      C2023   1.443       .  S
C2019      C2020   1.399       .  A
C2019      C2025   1.452   1_655  S
C2021      C2708   1.409       .  A
C2021      C2022   1.423       .  A
C2021      C2024   1.449       .  S
C2022      C2703   1.432       .  A
C2022      C2026   1.442       .  S
C2023      N2030   1.157       .  T
C2024      N2031   1.157       .  T
C2025      N2029   1.157       .  T
C2026      N2032   1.155       .  T
C2027      N2036   1.158   1_655  T
C2028      N2034   1.157       .  T
C2037      C2038   1.432       .  A
C2037      C2042   1.415       .  A
C2037      C2055   1.446       .  S
C2038      C2727   1.419       .  A
C2038      C2043   1.511       .  S
C2039      C2040   1.382       .  A
C2039      C2044   1.443       .  S
C2040      C2056   1.455       .  S
C2041      C2728   1.396       .  A
C2041      C2042   1.398       .  A
C2041      N2078   1.423       .  S
C2042      C2045   1.449       .  S
C2043      C2734   1.403       .  A
C2043      C2050   1.423       .  A
C2044      N2061   1.152       .  T
C2045      N2063   1.157       .  T
C2046      C2047   1.403       .  A
C2046      C2051   1.451       .  S
C2047      C2053   1.431       .  S
C2048      C2735   1.414       .  A
C2048      C2049   1.411       .  A
C2049      C2050   1.412       .  A
C2049      C2052   1.444       .  S
C2050      C2054   1.450       .  S
C2051      N2058   1.158       .  T
C2052      N2059   1.156       .  T
C2053      N2057   1.153       .  T
C2054      N2060   1.155       .  T
C2055      N2064   1.158       .  T
C2056      N2062   1.158       .  T
C2065      C2067   1.555       .  S
C2065      C2069   1.595       .  S
C2065      C2068   1.537       .  S
C2065      C2089   1.737       .  S
C2066      C2070   1.553       .  S
C2066      C2072   1.583       .  S
C2066      C2071   1.530       .  S
C2066      C2088   1.743       .  S
C2067      C2075   1.395       .  A
C2068      C2079   1.384       .  A
C2069      C2083   1.395       .  A
C2070      C2073   1.394       .  A
C2071      C2077   1.374       .  A
C2072      C2080   1.379       .  A
C2073      H2086   1.078       .  S
N2074      C2075   1.339       .  A
C2075      H2076   1.078       .  S
C2077      H2087   1.077       .  S
C2077      N2078   1.343       .  A
C2079      H2085   1.081       .  S
C2080      H2082   1.069       .  S
C2080      N2081   1.356       .  A
N2081      C2701   1.452       .  S
C2083      H2084   1.079       .  S
C2088      C2090   1.550       .  S
C2088      C2092   1.529       .  S
C2088      C2091   1.584       .  S
C2089      C2093   1.564       .  S
C2089      C2095   1.532       .  S
C2089      C2094   1.588       .  S
C2090      C2098   1.391       .  A
C2090      C2093   1.444       .  A
C2091      C2102   1.378       .  A
C2091      C2094   1.448       .  A
C2092      C2106   1.372       .  A
C2092      C2095   1.426       .  A
C2093      C2096   1.396       .  A
C2094      C2100   1.391       .  A
C2095      C2103   1.379       .  A
C2096      H2109   1.078       .  S
C2096      N2097   1.342       .  A
N2097      C2098   1.337       .  A
N2097      N2235   1.413       .  S
C2098      H2099   1.077       .  S
C2100      H2110   1.079       .  S
C2100      N2101   1.359       .  A
N2101      C2102   1.356       .  A
N2101      C2673   1.451       .  S
C2102      H2108   1.067       .  S
C2103      H2105   1.080       .  S
C2103      N2104   1.343       .  A
N2104      C2106   1.343       .  A
N2104      C2652   1.425       .  S
C2106      H2107   1.077       .  S
C2111      C2113   1.566       .  S
C2111      C2115   1.563       .  S
C2111      C2114   1.562   1_545  S
C2111      C2135   1.714       .  S
C2112      C2116   1.564       .  S
C2112      C2118   1.564       .  S
C2112      C2117   1.554   1_545  S
C2112      C2134   1.709       .  S
C2113      C2121   1.384   1_545  A
C2114      C2125   1.377       .  A
C2115      C2129   1.389       .  A
C2116      C2119   1.382   1_545  A
C2117      C2123   1.377       .  A
C2118      C2126   1.383       .  A
C2119      H2132   1.079       .  S
C2119      N2120   1.361   1_556  A
N2120      N2166   1.425       .  S
C2121      H2122   1.079       .  S
C2123      H2133   1.079       .  S
C2123      N2124   1.353       .  A
N2124      C2624   1.439       .  S
C2125      H2131   1.075       .  S
C2126      H2128   1.078       .  S
C2126      N2127   1.365       .  A
C2129      H2130   1.073       .  S
C2134      C2136   1.565   1_545  S
C2134      C2138   1.560       .  S
C2134      C2137   1.567       .  S
C2135      C2139   1.562   1_545  S
C2135      C2141   1.565       .  S
C2135      C2140   1.571       .  S
C2136      C2144   1.383       .  A
C2136      C2139   1.429       .  A
C2137      C2148   1.385       .  A
C2137      C2140   1.425       .  A
C2138      C2152   1.383       .  A
C2138      C2141   1.435       .  A
C2139      C2142   1.382       .  A
C2140      C2146   1.392       .  A
C2141      C2149   1.377       .  A
C2142      H2155   1.079       .  S
C2142      N2143   1.363       .  A
N2143      C2144   1.364       .  A
N2143      N2189   1.424       .  S
C2144      H2145   1.079       .  S
C2146      H2156   1.074       .  S
C2146      N2147   1.366       .  A
N2147      C2148   1.365       .  A
N2147      C2561   1.469       .  S
C2148      H2154   1.076       .  S
C2149      H2151   1.074       .  S
C2149      N2150   1.358       .  A
N2150      C2152   1.356       .  A
N2150      C2540   1.448       .  S
C2152      H2153   1.079       .  S
C2157      C2159   1.568       .  S
C2157      C2161   1.568       .  S
C2157      C2160   1.563       .  S
C2157      C2181   1.719       .  S
C2158      C2162   1.568       .  S
C2158      C2164   1.563       .  S
C2158      C2163   1.567       .  S
C2158      C2180   1.720       .  S
C2159      C2167   1.384       .  A
C2160      C2171   1.379       .  A
C2161      C2175   1.389       .  A
C2162      C2165   1.384       .  A
C2163      C2169   1.388       .  A
C2164      C2172   1.376       .  A
C2165      H2178   1.079       .  S
C2165      N2166   1.365   1_556  A
C2167      H2168   1.079       .  S
C2169      H2179   1.081       .  S
C2169      N2170   1.362   1_556  A
N2170      C2512   1.458       .  S
C2171      H2177   1.073       .  S
C2172      H2174   1.075       .  S
C2172      N2173   1.360       .  A
C2175      H2176   1.080       .  S
C2180      C2182   1.560       .  S
C2180      C2184   1.562       .  S
C2180      C2183   1.558       .  S
C2181      C2185   1.568       .  S
C2181      C2187   1.565       .  S
C2181      C2186   1.565       .  S
C2182      C2190   1.382       .  A
C2182      C2185   1.435       .  A
C2183      C2194   1.376       .  A
C2183      C2186   1.441       .  A
C2184      C2198   1.375       .  A
C2184      C2187   1.430       .  A
C2185      C2188   1.385       .  A
C2186      C2192   1.384       .  A
C2187      C2195   1.386       .  A
C2188      H2201   1.078       .  S
C2188      N2189   1.363       .  A
N2189      C2190   1.360       .  A
C2190      H2191   1.078       .  S
C2192      H2202   1.080       .  S
C2192      N2193   1.356       .  A
N2193      C2194   1.353       .  A
N2193      C2456   1.445       .  S
C2194      H2200   1.074       .  S
C2195      H2197   1.080       .  S
C2195      N2196   1.362       .  A
N2196      C2198   1.360       .  A
N2196      C2421   1.449       .  S
C2198      H2199   1.074       .  S
C2203      C2205   1.552   1_455  S
C2203      C2207   1.531       .  S
C2203      C2206   1.581       .  S
C2203      C2227   1.736       .  S
C2204      C2208   1.555   1_455  S
C2204      C2210   1.532       .  S
C2204      C2209   1.591       .  S
C2204      C2226   1.733       .  S
C2205      C2213   1.394       .  A
C2206      C2217   1.378       .  A
C2207      C2221   1.375       .  A
C2208      C2211   1.394       .  A
C2209      C2215   1.394       .  A
C2210      C2218   1.380       .  A
C2211      H2224   1.078       .  S
C2211      N2212   1.338       .  A
C2213      H2214   1.078       .  S
C2215      H2225   1.078       .  S
C2215      N2216   1.362       .  A
C2217      H2223   1.071       .  S
C2218      H2220   1.081       .  S
C2218      N2219   1.341       .  A
N2219      C2400   1.422       .  S
C2221      H2222   1.077       .  S
C2226      C2228   1.562   1_455  S
C2226      C2230   1.589   1_455  S
C2226      C2229   1.534       .  S
C2227      C2231   1.550   1_455  S
C2227      C2233   1.582   1_455  S
C2227      C2232   1.532       .  S
C2228      C2236   1.398       .  A
C2228      C2231   1.444       .  A
C2229      C2240   1.382       .  A
C2229      C2232   1.423       .  A
C2230      C2244   1.393       .  A
C2230      C2233   1.447       .  A
C2231      C2234   1.394       .  A
C2232      C2238   1.377       .  A
C2233      C2241   1.376       .  A
C2234      H2247   1.078       .  S
C2234      N2235   1.336       .  A
N2235      C2236   1.341       .  A
C2236      H2237   1.078       .  S
C2238      H2248   1.078       .  S
C2238      N2239   1.347       .  A
N2239      C2240   1.346       .  A
N2239      C2309   1.429       .  S
C2240      H2246   1.080       .  S
C2241      H2243   1.069       .  S
C2241      N2242   1.357       .  A
N2242      C2244   1.361       .  A
N2242      C2344   1.451       .  S
C2244      H2245   1.080       .  S
O2249      V2257   1.927       .  S
O2250      V2257   1.923   1_455  S
O2251      V2257   1.912       .  S
O2251      C2261   1.268   1_565  A
O2252      V2257   1.898       .  S
O2252      C2262   1.262       .  A
O2253      V2258   1.878       .  S
O2254      V2258   1.906       .  S
O2255      V2258   1.921   1_455  S
O2255      C2260   1.270   1_556  A
O2256      V2258   1.937       .  S
O2256      C2259   1.275   1_556  A
C2259      C2505   1.531       .  S
C2260      C2617   1.508       .  S
C2261      C2708   1.507       .  S
C2262      C2393   1.471       .  S
O2263      V2271   1.925       .  S
O2263      C2273   1.266       .  A
O2264      V2271   1.924   1_455  S
O2264      C2274   1.266       .  A
O2265      V2271   1.903       .  S
O2265      C2275   1.262       .  A
O2266      V2271   1.880   1_545  S
O2266      C2276   1.256       .  A
O2267      V2272   1.924   1_545  S
O2267      C2276   1.265       .  A
O2268      V2272   1.929       .  S
O2268      C2275   1.270       .  A
O2269      V2272   1.915   1_455  S
O2269      C2274   1.263       .  A
O2270      V2272   1.905       .  S
O2270      C2273   1.266       .  A
V2271      V2272   2.069       .  T
C2273      C2449   1.503       .  S
C2274      C2568   1.508       .  S
C2275      C2337   1.507       .  S
C2276      C2645   1.489       .  S
O2277      V2285   1.914       .  S
O2278      V2285   1.910       .  S
O2279      V2285   1.916       .  S
O2279      C2289   1.267       .  A
O2280      V2285   1.932       .  S
O2280      C2290   1.269       .  A
O2281      V2286   1.899       .  S
O2282      V2286   1.908       .  S
O2283      V2286   1.918       .  S
O2283      C2288   1.269       .  A
O2284      V2286   1.925       .  S
O2284      C2287   1.270       .  A
C2287      C2736   1.506       .  S
C2288      C2365   1.522       .  S
C2289      C2596   1.499       .  S
C2290      C2477   1.500       .  S
O2291      V2299   1.930       .  S
O2291      C2301   1.268       .  A
O2292      V2299   1.942       .  S
O2292      C2302   1.269       .  A
O2293      V2299   1.906       .  S
O2293      C2303   1.265       .  A
O2294      V2299   1.913       .  S
O2294      C2304   1.263       .  A
O2295      V2300   1.889       .  S
O2295      C2304   1.255       .  A
O2296      V2300   1.900       .  S
O2296      C2303   1.261       .  A
O2297      V2300   1.914       .  S
O2297      C2302   1.269       .  A
O2298      V2300   1.932       .  S
O2298      C2301   1.268       .  A
V2299      V2300   2.073       .  T
C2301      C2533   1.526       .  S
C2302      C2428   1.531       .  S
C2303      C2680   1.497       .  S
C2304      C2316   1.482       .  S
C2305      C2306   1.425       .  A
C2305      C2310   1.389       .  A
C2305      C2323   1.443       .  S
C2306      C2307   1.438       .  A
C2306      C2311   1.525       .  S
C2307      C2308   1.418       .  A
C2307      C2312   1.448       .  S
C2308      C2309   1.398       .  A
C2308      C2324   1.449       .  S
C2309      C2310   1.395       .  A
C2310      C2313   1.457       .  S
C2311      C2314   1.431       .  A
C2311      C2318   1.424       .  A
C2312      N2329   1.158       .  T
C2313      N2331   1.158       .  T
C2314      C2315   1.411       .  A
C2314      C2319   1.448       .  S
C2315      C2316   1.401       .  A
C2315      C2321   1.445       .  S
C2316      C2317   1.407       .  A
C2317      C2318   1.408       .  A
C2317      C2320   1.450       .  S
C2318      C2322   1.448       .  S
C2319      N2326   1.155       .  T
C2320      N2327   1.156       .  T
C2321      N2325   1.155       .  T
C2322      N2328   1.158       .  T
C2323      N2332   1.154       .  T
C2324      N2330   1.157       .  T
C2333      C2334   1.438       .  A
C2333      C2338   1.426       .  A
C2333      C2351   1.449       .  S
C2334      C2335   1.434       .  A
C2334      C2339   1.555       .  S
C2335      C2336   1.414       .  A
C2335      C2340   1.447   1_655  S
C2336      C2337   1.397       .  A
C2336      C2352   1.435   1_655  S
C2337      C2338   1.403       .  A
C2338      C2341   1.449       .  S
C2339      C2342   1.438       .  A
C2339      C2346   1.433       .  A
C2340      N2357   1.157       .  T
C2341      N2359   1.157       .  T
C2342      C2343   1.428       .  A
C2342      C2347   1.452       .  S
C2343      C2344   1.405       .  A
C2343      C2349   1.448       .  S
C2344      C2345   1.400       .  A
C2345      C2346   1.412       .  A
C2345      C2348   1.453   1_655  S
C2346      C2350   1.442   1_655  S
C2347      N2354   1.158       .  T
C2348      N2355   1.157       .  T
C2349      N2353   1.157       .  T
C2350      N2356   1.154       .  T
C2351      N2360   1.158       .  T
C2352      N2358   1.150       .  T
C2361      C2362   1.431       .  A
C2361      C2366   1.421       .  A
C2361      C2379   1.446       .  S
C2362      C2367   1.544       .  S
C2363      C2364   1.414       .  A
C2363      C2368   1.445       .  S
C2364      C2380   1.433       .  S
C2365      C2366   1.406       .  A
C2366      C2369   1.435       .  S
C2367      C2374   1.430       .  A
C2368      N2385   1.154       .  T
C2369      N2387   1.150       .  T
C2370      C2371   1.428       .  A
C2370      C2375   1.450       .  S
C2371      C2377   1.447       .  S
C2372      C2373   1.398       .  A
C2373      C2374   1.410       .  A
C2373      C2376   1.454       .  S
C2374      C2378   1.440       .  S
C2375      N2382   1.158       .  T
C2376      N2383   1.157       .  T
C2377      N2381   1.157       .  T
C2378      N2384   1.153       .  T
C2379      N2388   1.158       .  T
C2380      N2386   1.150       .  T
C2389      C2394   1.405       .  A
C2389      C2407   1.451       .  S
C2390      C2391   1.422   1_455  A
C2390      C2395   1.501       .  S
C2391      C2392   1.402       .  A
C2391      C2396   1.445       .  S
C2392      C2393   1.403       .  A
C2392      C2408   1.450       .  S
C2394      C2397   1.445       .  S
C2395      C2398   1.423       .  A
C2396      N2413   1.154       .  T
C2397      N2415   1.154       .  T
C2398      C2399   1.412       .  A
C2398      C2403   1.448       .  S
C2399      C2400   1.402       .  A
C2399      C2405   1.448       .  S
C2401      C2402   1.388       .  A
C2401      C2404   1.453   1_455  S
C2402      C2406   1.449   1_455  S
C2403      N2410   1.158       .  T
C2404      N2411   1.158       .  T
C2405      N2409   1.157       .  T
C2406      N2412   1.154       .  T
C2407      N2416   1.158       .  T
C2408      N2414   1.157       .  T
C2417      C2418   1.427       .  A
C2417      C2422   1.407       .  A
C2417      C2435   1.444       .  S
C2418      C2419   1.429       .  A
C2418      C2423   1.538       .  S
C2419      C2420   1.427       .  A
C2419      C2424   1.449       .  S
C2420      C2421   1.408       .  A
C2420      C2436   1.447       .  S
C2421      C2422   1.400       .  A
C2422      C2425   1.453       .  S
C2423      C2426   1.418       .  A
C2423      C2430   1.420       .  A
C2424      N2441   1.158       .  T
C2425      N2443   1.158       .  T
C2426      C2427   1.422       .  A
C2426      C2431   1.447       .  S
C2427      C2428   1.419       .  A
C2427      C2433   1.439       .  S
C2428      C2429   1.418       .  A
C2429      C2430   1.420       .  A
C2429      C2432   1.443       .  S
C2430      C2434   1.446       .  S
C2431      N2438   1.154       .  T
C2432      N2439   1.153       .  T
C2433      N2437   1.155       .  T
C2434      N2440   1.157       .  T
C2435      N2444   1.154       .  T
C2436      N2442   1.157       .  T
C2445      C2446   1.419       .  A
C2445      C2450   1.395       .  A
C2445      C2463   1.439       .  S
C2446      C2447   1.426       .  A
C2446      C2451   1.523       .  S
C2447      C2448   1.421       .  A
C2447      C2452   1.451   1_565  S
C2448      C2449   1.410       .  A
C2448      C2464   1.435   1_565  S
C2449      C2450   1.391       .  A
C2450      C2453   1.428       .  S
C2451      C2454   1.424       .  A
C2451      C2458   1.422       .  A
C2452      N2469   1.158       .  T
C2453      N2471   1.152       .  T
C2454      C2455   1.416       .  A
C2454      C2459   1.450   1_565  S
C2455      C2456   1.406       .  A
C2455      C2461   1.448       .  S
C2456      C2457   1.407       .  A
C2457      C2458   1.409       .  A
C2457      C2460   1.449       .  S
C2458      C2462   1.447       .  S
C2459      N2466   1.158       .  T
C2460      N2467   1.157       .  T
C2461      N2465   1.157   1_565  T
C2462      N2468   1.156       .  T
C2463      N2472   1.155       .  T
C2464      N2470   1.154       .  T
C2473      C2474   1.428       .  A
C2473      C2478   1.415       .  A
C2473      C2491   1.444       .  S
C2474      C2479   1.545       .  S
C2475      C2476   1.416       .  A
C2475      C2480   1.447       .  S
C2476      C2492   1.447       .  S
C2477      C2478   1.405       .  A
C2478      C2481   1.443       .  S
C2479      C2486   1.435       .  A
C2480      N2497   1.158       .  T
C2481      N2499   1.156       .  T
C2482      C2483   1.404       .  A
C2482      C2487   1.443       .  S
C2483      C2489   1.454       .  S
C2484      C2485   1.404       .  A
C2485      C2486   1.425       .  A
C2485      C2488   1.447       .  S
C2486      C2490   1.450       .  S
C2487      N2494   1.155       .  T
C2488      N2495   1.157       .  T
C2489      N2493   1.157       .  T
C2490      N2496   1.158       .  T
C2491      N2500   1.155       .  T
C2492      N2498   1.155       .  T
C2501      C2502   1.427   1_556  A
C2501      C2506   1.428   1_556  A
C2501      C2519   1.449       .  S
C2502      C2507   1.549       .  S
C2503      C2504   1.417       .  A
C2503      C2508   1.448       .  S
C2504      C2520   1.442       .  S
C2505      C2506   1.416       .  A
C2506      C2509   1.444   1_554  S
C2507      C2514   1.430   1_554  A
C2508      N2525   1.156       .  T
C2509      N2527   1.155       .  T
C2510      C2511   1.425       .  A
C2510      C2515   1.450       .  S
C2511      C2517   1.449       .  S
C2512      C2513   1.407   1_554  A
C2513      C2514   1.415       .  A
C2513      C2516   1.449       .  S
C2514      C2518   1.449       .  S
C2515      N2522   1.158       .  T
C2516      N2523   1.157       .  T
C2517      N2521   1.157       .  T
C2518      N2524   1.156       .  T
C2519      N2528   1.157       .  T
C2520      N2526   1.156   1_565  T
C2529      C2530   1.423       .  A
C2529      C2534   1.417       .  A
C2529      C2547   1.452       .  S
C2530      C2531   1.430       .  A
C2530      C2535   1.546       .  S
C2531      C2532   1.425       .  A
C2531      C2536   1.441       .  S
C2532      C2533   1.409       .  A
C2532      C2548   1.444       .  S
C2533      C2534   1.408       .  A
C2534      C2537   1.426       .  S
C2535      C2538   1.435       .  A
C2535      C2542   1.437       .  A
C2536      N2553   1.157       .  T
C2537      N2555   1.148       .  T
C2538      C2539   1.422       .  A
C2538      C2543   1.452       .  S
C2539      C2540   1.404       .  A
C2539      C2545   1.448       .  S
C2540      C2541   1.404       .  A
C2541      C2542   1.412       .  A
C2541      C2544   1.448       .  S
C2542      C2546   1.449       .  S
C2543      N2550   1.158       .  T
C2544      N2551   1.155       .  T
C2545      N2549   1.157       .  T
C2546      N2552   1.159       .  T
C2547      N2556   1.156       .  T
C2548      N2554   1.157       .  T
C2557      C2558   1.406       .  A
C2557      C2562   1.427       .  A
C2557      C2575   1.434       .  S
C2558      C2559   1.413       .  A
C2558      C2563   1.527       .  S
C2559      C2560   1.416       .  A
C2559      C2564   1.441   1_545  S
C2560      C2561   1.414       .  A
C2560      C2576   1.439       .  S
C2561      C2562   1.429       .  A
C2562      C2565   1.435   1_545  S
C2563      C2566   1.420   1_545  A
C2563      C2570   1.420       .  A
C2564      N2581   1.157       .  T
C2565      N2583   1.155       .  T
C2566      C2567   1.421       .  A
C2566      C2571   1.444       .  S
C2567      C2568   1.411       .  A
C2567      C2573   1.444       .  S
C2568      C2569   1.415   1_565  A
C2569      C2570   1.416       .  A
C2569      C2572   1.443       .  S
C2570      C2574   1.456       .  S
C2571      N2578   1.157       .  T
C2572      N2579   1.154       .  T
C2573      N2577   1.156       .  T
C2574      N2580   1.158       .  T
C2575      N2584   1.157       .  T
C2576      N2582   1.157       .  T
C2585      C2586   1.407       .  A
C2585      C2590   1.422       .  A
C2585      C2603   1.431       .  S
C2586      C2591   1.521       .  S
C2587      C2588   1.412       .  A
C2587      C2592   1.439       .  S
C2588      C2604   1.438       .  S
C2589      C2590   1.430       .  A
C2590      C2593   1.437       .  S
C2591      C2598   1.424       .  A
C2592      N2609   1.157       .  T
C2593      N2611   1.156       .  T
C2594      C2595   1.418       .  A
C2594      C2599   1.447       .  S
C2595      C2601   1.448       .  S
C2596      C2597   1.407       .  A
C2597      C2598   1.412       .  A
C2597      C2600   1.445       .  S
C2598      C2602   1.454       .  S
C2599      N2606   1.158       .  T
C2600      N2607   1.155       .  T
C2601      N2605   1.156       .  T
C2602      N2608   1.158       .  T
C2603      N2612   1.157       .  T
C2604      N2610   1.157       .  T
C2613      C2618   1.412       .  A
C2613      C2631   1.454       .  S
C2614      C2615   1.425   1_554  A
C2614      C2619   1.530   1_554  S
C2615      C2616   1.418       .  A
C2615      C2620   1.440   1_565  S
C2616      C2617   1.408   1_556  A
C2616      C2632   1.446   1_565  S
C2618      C2621   1.441       .  S
C2619      C2622   1.436       .  A
C2620      N2637   1.157       .  T
C2621      N2639   1.156       .  T
C2622      C2623   1.417       .  A
C2622      C2627   1.453       .  S
C2623      C2624   1.401       .  A
C2623      C2629   1.448       .  S
C2625      C2626   1.411       .  A
C2625      C2628   1.447       .  S
C2626      C2630   1.447       .  S
C2627      N2634   1.158       .  T
C2628      N2635   1.154       .  T
C2629      N2633   1.157       .  T
C2630      N2636   1.159       .  T
C2631      N2640   1.156       .  T
C2632      N2638   1.154       .  T
C2641      C2642   1.423       .  A
C2641      C2646   1.414       .  A
C2641      C2659   1.447       .  S
C2642      C2643   1.409       .  A
C2642      C2647   1.506       .  S
C2643      C2644   1.401       .  A
C2643      C2648   1.445       .  S
C2644      C2645   1.410       .  A
C2644      C2660   1.443       .  S
C2645      C2646   1.407       .  A
C2646      C2649   1.445       .  S
C2647      C2650   1.418       .  A
C2647      C2654   1.432       .  A
C2648      N2665   1.156       .  T
C2649      N2667   1.156   1_655  T
C2650      C2651   1.390       .  A
C2650      C2655   1.446       .  S
C2651      C2652   1.401       .  A
C2651      C2657   1.455       .  S
C2652      C2653   1.394       .  A
C2653      C2654   1.411       .  A
C2653      C2656   1.449       .  S
C2654      C2658   1.448       .  S
C2655      N2662   1.156       .  T
C2656      N2663   1.157       .  T
C2657      N2661   1.158       .  T
C2658      N2664   1.157       .  T
C2659      N2668   1.155       .  T
C2660      N2666   1.152       .  T
C2669      C2670   1.430       .  A
C2669      C2674   1.425       .  A
C2669      C2687   1.452       .  S
C2670      C2671   1.427       .  A
C2670      C2675   1.539       .  S
C2671      C2672   1.414       .  A
C2671      C2676   1.443       .  S
C2672      C2673   1.405       .  A
C2672      C2688   1.452       .  S
C2673      C2674   1.406       .  A
C2674      C2677   1.447       .  S
C2675      C2678   1.428       .  A
C2675      C2682   1.429       .  A
C2676      N2693   1.154       .  T
C2677      N2695   1.157       .  T
C2678      C2679   1.415       .  A
C2678      C2683   1.448       .  S
C2679      C2680   1.404       .  A
C2679      C2685   1.442       .  S
C2680      C2681   1.401       .  A
C2681      C2682   1.416       .  A
C2681      C2684   1.446       .  S
C2682      C2686   1.440       .  S
C2683      N2690   1.158       .  T
C2684      N2691   1.154       .  T
C2685      N2689   1.153       .  T
C2686      N2692   1.154       .  T
C2687      N2696   1.158       .  T
C2688      N2694   1.157       .  T
C2697      C2702   1.428       .  A
C2697      C2715   1.449       .  S
C2698      C2699   1.439       .  A
C2698      C2703   1.554       .  S
C2699      C2700   1.416       .  A
C2699      C2704   1.442       .  S
C2700      C2701   1.398       .  A
C2700      C2716   1.456       .  S
C2702      C2705   1.447       .  S
C2703      C2706   1.436       .  A
C2704      N2721   1.157       .  T
C2705      N2723   1.157   1_655  T
C2706      C2707   1.418       .  A
C2706      C2711   1.444       .  S
C2707      C2708   1.402       .  A
C2707      C2713   1.451   1_655  S
C2709      C2710   1.415       .  A
C2709      C2712   1.447       .  S
C2710      C2714   1.442       .  S
C2711      N2718   1.157   1_655  T
C2712      N2719   1.155       .  T
C2713      N2717   1.156       .  T
C2714      N2720   1.153       .  T
C2715      N2724   1.158   1_655  T
C2716      N2722   1.157       .  T
C2725      C2726   1.432       .  A
C2725      C2730   1.419       .  A
C2725      C2743   1.447       .  S
C2726      C2731   1.515       .  S
C2727      C2728   1.384       .  A
C2727      C2732   1.445       .  S
C2728      C2744   1.454       .  S
C2729      C2730   1.401       .  A
C2730      C2733   1.448       .  S
C2731      C2738   1.422       .  A
C2732      N2749   1.153       .  T
C2733      N2751   1.157       .  T
C2734      C2735   1.403       .  A
C2734      C2739   1.450       .  S
C2735      C2741   1.433       .  S
C2736      C2737   1.410       .  A
C2737      C2738   1.413       .  A
C2737      C2740   1.444       .  S
C2738      C2742   1.447       .  S
C2739      N2746   1.158       .  T
C2740      N2747   1.156       .  T
C2741      N2745   1.154       .  T
C2742      N2748   1.154       .  T
C2743      N2752   1.158       .  T
C2744      N2750   1.158       .  T
