geometry optimzed in LAMMPS
_audit_creation_date              2020-12-01 
_audit_creation_method            'lammps2cif' 
_symmetry_space_group_name_H-M    'P1' 
_symmetry_Int_Tables_number       1 
_symmetry_cell_setting            triclinic 
loop_ 
_symmetry_equiv_pos_as_xyz 
  x,y,z 
_cell_length_a                    28.44407389 
_cell_length_b                    28.503795619939478 
_cell_length_c                    28.43690023941612 
_cell_angle_alpha                 89.96634857294197 
_cell_angle_beta                  90.03980186083874 
_cell_angle_gamma                 89.98379581542277 
loop_ 
_atom_site_label 
_atom_site_type_symbol 
_atom_site_fract_x 
_atom_site_fract_y 
_atom_site_fract_z 
_atom_site_charge 
C1          C  0.00182819  0.14263796  0.38354405     0.42300
N2          N  0.97903826  0.10104885  0.44217786     0.01200
C3          C  0.11295323  0.95340580  0.58140580    -0.06700
H4          H  0.11794285  0.91691629  0.39916926     0.06600
C5          C  0.94442743  0.88184848  0.40768554    -0.07100
Co6        Co  0.05935011  0.05755337  0.49399093     0.74200
N7          N  0.08825015  0.97101720  0.44294647    -0.26300
Co8        Co  0.04875766  0.93649939  0.49419003     0.74100
C9          C  0.98549629  0.86096016  0.38503861     0.42400
N10         N  0.89563804  0.98742220  0.44220176     0.00800
N11         N  0.00826131  0.90368573  0.44278215     0.00900
N12         N  0.11955218  0.03251089  0.57968998    -0.47100
H13         H  0.07979999  0.12562080  0.39842758     0.06600
N14         N  0.09221757  0.01712414  0.44293570     0.01200
N15         N  0.00798248  0.90370823  0.54548035     0.00900
C16         C  0.98559441  0.86086391  0.60325632     0.42500
N17         N  0.89961341  0.03353596  0.44172009    -0.25700
C18         C  0.04257941  0.12152642  0.58068390    -0.06600
N19         N  0.96360890  0.12835300  0.40778247    -0.46800
N20         N  0.02368703  0.87616814  0.57950771    -0.47000
C21         C  0.00178147  0.14261341  0.60351204     0.42300
N22         N  0.09196127  0.01701211  0.54556622     0.01100
N23         N  0.89834268  0.03389753  0.54412483    -0.25700
N24         N  0.02520679  0.09681117  0.44237917    -0.26200
N25         N  0.89417344  0.98778774  0.54473486     0.00800
H26         H  0.86728451  0.08900605  0.58530568     0.06700
H27         H  0.90740353  0.87704359  0.58864746     0.06700
N28         N  0.08776173  0.97092415  0.54562008    -0.26300
N29         N  0.96206243  0.90757442  0.44296700    -0.25900
N30         N  0.97856712  0.10112790  0.54505268     0.01200
C31         C  0.13462875  0.99495246  0.38479697     0.42500
C32         C  0.87552453  0.05042592  0.40481336    -0.07100
N33         N  0.96173437  0.90745861  0.54533061    -0.25900
H34         H  0.90747671  0.87762778  0.39983826     0.06700
N35         N  0.11976995  0.03287147  0.40894859    -0.47100
H36         H  0.87205638  0.08707543  0.39562835     0.06700
C37         C  0.84971809  0.01141622  0.60077407     0.42400
C38         C  0.04286822  0.12185034  0.40655207    -0.06600
Co39       Co  0.93815425  0.06829352  0.49332349     0.73800
N40         N  0.86972319  0.97130024  0.40719648    -0.46800
C41         C  0.13391799  0.99441005  0.60400771     0.42600
N42         N  0.96330004  0.12867013  0.57934639    -0.46800
Co43       Co  0.92752356  0.94693298  0.49394846     0.73900
C44         C  0.94428391  0.88138519  0.58053919    -0.07100
C45         C  0.11386495  0.95371791  0.40738056    -0.06700
N46         N  0.02473455  0.09664280  0.54501678    -0.26200
N47         N  0.02375268  0.87589399  0.40888657    -0.47000
H48         H  0.11693830  0.91656429  0.58955567     0.06700
C49         C  0.87167904  0.05198884  0.57834027    -0.07100
Cl50       Cl  0.99344415  0.00230693  0.49397406    -0.50100
C51         C  0.85594446  0.00887975  0.38188559     0.42400
H52         H  0.07956969  0.12509631  0.58866715     0.06600
N53         N  0.86515408  0.97281741  0.57795340    -0.46800
C54         C  0.13429918  0.39276051  0.00118490     0.42300
N55         N  0.09270779  0.45130927  0.97811882     0.01200
C56         C  0.94446750  0.58800637  0.11440213    -0.06700
H57         H  0.90926444  0.40671383  0.11780141     0.06600
C58         C  0.87422302  0.41567381  0.94354052    -0.07100
Co59       Co  0.04953857  0.50313873  0.05854701     0.74200
N60         N  0.96295767  0.45117167  0.08796841    -0.26300
Co61       Co  0.92787408  0.50219950  0.04851177     0.74100
C62         C  0.85389262  0.39214425  0.98432172     0.42400
N63         N  0.97882092  0.45069656  0.89417376     0.00800
N64         N  0.89518754  0.45066145  0.00771662     0.00900
N65         N  0.02383885  0.58756985  0.11988071    -0.47100
H66         H  0.11787927  0.40825582  0.07913169     0.06600
N67         N  0.00923430  0.45152779  0.09166676     0.01200
N68         N  0.89496658  0.55375409  0.00766669     0.00900
C69         C  0.85522953  0.61366724  0.98476283     0.42500
N70         N  0.02499110  0.45088781  0.89857329    -0.25700
C71         C  0.11405112  0.59071185  0.03969389    -0.06600
N72         N  0.11965985  0.41663920  0.96279878    -0.46800
N73         N  0.86855897  0.58886522  0.02306661    -0.47000
C74         C  0.13406116  0.61297260  0.99772665     0.42300
N75         N  0.00853717  0.55407617  0.09150757     0.01100
N76         N  0.02470935  0.55340313  0.89783812    -0.25700
N77         N  0.08895459  0.45188434  0.02434030    -0.26200
N78         N  0.97851686  0.55321291  0.89389644     0.00800
H79         H  0.07857356  0.59854847  0.86950573     0.06700
H80         H  0.87235146  0.59890203  0.90692370     0.06700
N81         N  0.96227826  0.55342664  0.08788748    -0.26300
N82         N  0.89916322  0.45121826  0.96150254    -0.25900
N83         N  0.09218691  0.55396455  0.97697004     0.01200
C84         C  0.98763475  0.39291753  0.13392273     0.42500
C85         C  0.04283187  0.41511353  0.87389347    -0.07100
N86         N  0.89938613  0.55372761  0.96146604    -0.25900
H87         H  0.87073166  0.40774014  0.90653175     0.06700
N88         N  0.02537293  0.41736812  0.11881461    -0.47100
H89         H  0.07982100  0.40719103  0.87026179     0.06700
C90         C  0.00031222  0.61258340  0.85319358     0.42400
C91         C  0.11408633  0.41623440  0.04215303    -0.06600
Co92       Co  0.05948168  0.50232763  0.93719910     0.73800
N93         N  0.96354826  0.41622941  0.86689000    -0.46800
C94         C  0.98545122  0.61068347  0.13551994     0.42600
N95         N  0.11902658  0.58806233  0.96035242    -0.46800
Co96       Co  0.93822923  0.50218388  0.92692675     0.73900
C97         C  0.87552796  0.59030772  0.94382430    -0.07100
C98         C  0.94602686  0.41541619  0.11364706    -0.06700
N99         N  0.08859998  0.55457623  0.02322973    -0.26200
N100        N  0.86824271  0.41587548  0.02291035    -0.47000
H101        H  0.90746105  0.59521855  0.11917460     0.06700
C102        C  0.04179409  0.58973842  0.87320758    -0.07100
Cl103      Cl  0.99378842  0.50245385  0.99284380    -0.50100
C104        C  0.00200782  0.39207323  0.85304293     0.42400
H105        H  0.11831800  0.59975343  0.07636804     0.06600
N106        N  0.96248814  0.58778043  0.86727920    -0.46800
C107        C  0.60464242  0.99563914  0.13454378     0.42300
N108        N  0.54649764  0.01834444  0.09226170     0.01200
C109        C  0.40869279  0.88242005  0.94478269    -0.06700
H110        H  0.59184867  0.88165085  0.90878783     0.06600
C111        C  0.58108718  0.05161779  0.87461426    -0.07100
Co112      Co  0.49484451  0.93714370  0.04982549     0.74200
N113        N  0.54675167  0.90879080  0.96323428    -0.26300
Co114      Co  0.49500093  0.94706582  0.92848991     0.74100
C115        C  0.60483034  0.01072108  0.85475382     0.42400
N116        N  0.54466085  0.10164080  0.97782559     0.00800
N117        N  0.54588599  0.98778309  0.89553121     0.00900
N118        N  0.40899528  0.87629681  0.02412120    -0.47100
H119        H  0.58925817  0.91774956  0.11849055     0.06600
N120        N  0.54668233  0.90434430  0.00940918     0.01200
N121        N  0.44320147  0.98667326  0.89546135     0.00900
C122        C  0.38505019  0.00785940  0.85254344     0.42500
N123        N  0.54570504  0.09795398  0.02405260    -0.25700
C124        C  0.40853226  0.95470233  0.11517879    -0.06600
N125        N  0.58093925  0.03388592  0.11949906    -0.46800
N126        N  0.40942138  0.97030064  0.86801550    -0.47000
C127        C  0.38622994  0.99590348  0.13622110     0.42300
N128        N  0.44343054  0.90379639  0.00906562     0.01100
N129        N  0.44281309  0.09726005  0.02507165    -0.25700
N130        N  0.54600313  0.97216788  0.08876161    -0.26200
N131        N  0.44191718  0.10062080  0.97879710     0.00800
H132        H  0.39922226  0.12630474  0.07977264     0.06700
H133        H  0.39839661  0.08618247  0.86822868     0.06700
N134        N  0.44403282  0.90771732  0.96285150    -0.26300
N135        N  0.54513898  0.03389418  0.89924029    -0.25900
N136        N  0.44383907  0.01814346  0.09300690     0.01200
C137        C  0.60660986  0.86458711  0.98666668     0.42500
C138        C  0.58202333  0.12331713  0.04037632    -0.07100
N139        N  0.44261723  0.03281386  0.89894651    -0.25900
H140        H  0.58892935  0.08851667  0.87068090     0.06700
N141        N  0.58174177  0.87783632  0.02493403    -0.47100
H142        H  0.59134237  0.12751988  0.07699796     0.06700
C143        C  0.38311017  0.14190508  0.00172552     0.42400
C144        C  0.58141581  0.95462897  0.11432714    -0.06600
Co145      Co  0.49481435  0.05867513  0.05948864     0.73800
N146        N  0.57856297  0.12861562  0.96109117    -0.46800
C147        C  0.38535668  0.86168890  0.98548146     0.42600
N148        N  0.41015755  0.03387238  0.12099008    -0.46800
Co149      Co  0.49343079  0.06810409  0.93803071     0.73900
C150        C  0.40708088  0.04952965  0.87282953    -0.07100
C151        C  0.58333502  0.88494563  0.94568527    -0.06700
N152        N  0.44372376  0.97199453  0.08908438    -0.26200
N153        N  0.58081313  0.97241256  0.86889402    -0.47000
H154        H  0.40107921  0.87855017  0.90773916     0.06700
C155        C  0.40699051  0.12221034  0.04279287    -0.07100
Cl156      Cl  0.49446746  0.00275083  0.99400282    -0.50100
C157        C  0.60384069  0.14349434  0.99832340     0.42400
H158        H  0.40053618  0.91788196  0.11953009     0.06600
N159        N  0.40693825  0.12717901  0.96337458    -0.46800
C160        C  0.82292015  0.65443096  0.98527357    -0.01500
C161        C  0.81692505  0.68219002  0.94505449    -0.09500
C162        C  0.78457145  0.71911619  0.94454939    -0.18300
C163        C  0.75656881  0.72920821  0.98441489     0.04100
C164        C  0.76338613  0.70133317  0.02536589     0.18200
C165        C  0.79666367  0.66484728  0.02559894    -0.19800
C166        C  0.73621088  0.70928551  0.06558278    -0.21000
C167        C  0.70163434  0.74375380  0.06582329    -0.19600
C168        C  0.69357648  0.77143790  0.02597395     0.19600
C169        C  0.72133905  0.76509306  0.98485872     0.01800
C170        C  0.71199860  0.79443951  0.94580468    -0.14300
C171        C  0.67543772  0.82716135  0.94694414    -0.12000
C172        C  0.64726980  0.83216565  0.98699728     0.01300
C173        C  0.65722924  0.80489427  0.02676855    -0.24200
H174        H  0.83716237  0.67530389  0.91357836     0.09300
H175        H  0.78178943  0.73853295  0.91217625     0.12900
H176        H  0.80109494  0.64357153  0.05690983     0.11600
H177        H  0.74123585  0.68817755  0.09690180     0.12800
H178        H  0.68071753  0.74848370  0.09730770     0.11800
H179        H  0.73195203  0.79269215  0.91369262     0.08900
H180        H  0.66913490  0.84847322  0.91605134     0.12200
H181        H  0.63578415  0.80875468  0.05803517     0.14000
C182        C  0.64372212  0.17660700  0.99485427    -0.01500
C183        C  0.65599846  0.19540070  0.95103190    -0.09500
C184        C  0.69198762  0.22836818  0.94701183    -0.18300
C185        C  0.71711762  0.24382660  0.98702297     0.04100
C186        C  0.70541391  0.22364626  0.03127002     0.18200
C187        C  0.66907676  0.19037530  0.03476805    -0.19800
C188        C  0.72951924  0.23736439  0.07191573    -0.21000
C189        C  0.76409049  0.27177794  0.06988828    -0.19600
C190        C  0.77546779  0.29332809  0.02715736     0.19600
C191        C  0.75272879  0.27914799  0.98492499     0.01800
C192        C  0.76604635  0.30163701  0.94263675    -0.14300
C193        C  0.79939056  0.33751176  0.94256694    -0.12000
C194        C  0.82059083  0.35232223  0.98445770     0.01300
C195        C  0.80892737  0.32961480  0.02655550    -0.24200
H196        H  0.63722274  0.18505559  0.91954712     0.09300
H197        H  0.69884049  0.24140655  0.91212054     0.12900
H198        H  0.66021918  0.17570946  0.06878566     0.11600
H199        H  0.72107972  0.22185631  0.10568100     0.12800
H200        H  0.78159237  0.28210101  0.10213163     0.11800
H201        H  0.75100122  0.29277435  0.90902198     0.08900
H202        H  0.80776879  0.35429326  0.90948340     0.12200
H203        H  0.82556757  0.34054980  0.05907863     0.14000
C204        C  0.34582126  0.82785499  0.98564278    -0.01500
C205        C  0.32322104  0.81502731  0.94374259    -0.09500
C206        C  0.28718856  0.78162462  0.94375917    -0.18300
C207        C  0.27259777  0.75974620  0.98599362     0.00200
C208        C  0.29514666  0.77364013  0.02842957     0.18200
C209        C  0.33113281  0.80735331  0.02787173    -0.19800
C210        C  0.28206288  0.75348684  0.07130828    -0.21000
C211        C  0.24723886  0.71943216  0.07310554    -0.19600
C212        C  0.22469074  0.70448049  0.03205839     0.19600
C213        C  0.23687616  0.72438211  0.98780578     0.01800
C214        C  0.21317657  0.70745788  0.94745770    -0.14300
C215        C  0.17952820  0.67185066  0.95101503    -0.12000
C216        C  0.16804309  0.65220693  0.99473449     0.01300
C217        C  0.19042144  0.66913936  0.03512000    -0.24200
H218        H  0.33347130  0.83059352  0.91058385     0.09300
H219        H  0.27165239  0.77353584  0.91016904     0.12900
H220        H  0.34822740  0.81717912  0.06050201     0.11600
H221        H  0.29908248  0.76398146  0.10374701     0.12800
H222        H  0.23813686  0.70437044  0.10690315     0.11800
H223        H  0.22021043  0.72060016  0.91263525     0.08900
H224        H  0.16256228  0.65946223  0.91924003     0.12200
H225        H  0.18201605  0.65408954  0.06908017     0.14000
C226        C  0.34295844  0.17496810  0.00057233    -0.01500
C227        C  0.32585442  0.19139264  0.95742741    -0.09500
C228        C  0.28975541  0.22453703  0.95561534    -0.18300
C229        C  0.26953670  0.24269207  0.99724439     0.04100
C230        C  0.28613726  0.22491478  0.04096387     0.18200
C231        C  0.32232496  0.19131646  0.04222470    -0.19800
C232        C  0.26714603  0.24141217  0.08323546    -0.21000
C233        C  0.23280102  0.27612673  0.08315565    -0.19600
C234        C  0.21655746  0.29524897  0.04080113     0.19600
C235        C  0.23420735  0.27842552  0.99716181     0.01800
C236        C  0.21634620  0.29882789  0.95544489    -0.14300
C237        C  0.18354933  0.33524064  0.95709994    -0.12000
C238        C  0.16719317  0.35248748  0.00016905     0.01300
C239        C  0.18331574  0.33175398  0.04190329    -0.24200
H240        H  0.34087346  0.17899261  0.92471946     0.09300
H241        H  0.27892671  0.23562146  0.92104359     0.12900
H242        H  0.33493917  0.17864093  0.07586326     0.11600
H243        H  0.27942008  0.22782513  0.11667314     0.12800
H244        H  0.21930547  0.28857614  0.11653270     0.11800
H245        H  0.22738823  0.28788508  0.92092387     0.08900
H246        H  0.17131756  0.35033787  0.92433343     0.12200
H247        H  0.17071308  0.34449648  0.07548654     0.14000
C248        C  0.64470621  0.01031548  0.82158115    -0.01500
C249        C  0.66920112  0.05177306  0.81208668    -0.09500
C250        C  0.70413984  0.05294598  0.77785218    -0.18300
C251        C  0.71555959  0.01245114  0.75156992     0.04100
C252        C  0.69282464  0.96967127  0.76347024     0.18200
C253        C  0.65761149  0.96898899  0.79813944    -0.19800
C254        C  0.70495354  0.92808953  0.74023038    -0.21000
C255        C  0.73891342  0.92822893  0.70498984    -0.19600
C256        C  0.76063366  0.97016000  0.69129700     0.19600
C257        C  0.74870917  0.01297183  0.71397496     0.01800
C258        C  0.76957917  0.05473337  0.69725739    -0.14300
C259        C  0.80199929  0.05387404  0.66063345    -0.12000
C260        C  0.81487480  0.01155364  0.63931817     0.01300
C261        C  0.79386914  0.96973765  0.65468002    -0.24200
H262        H  0.66111601  0.08381432  0.83080505     0.09300
H263        H  0.72157991  0.08611673  0.77290012     0.12900
H264        H  0.63948168  0.93647052  0.80604026     0.11600
H265        H  0.68807692  0.89524375  0.74937495     0.12800
H266        H  0.74766817  0.89545265  0.68778858     0.11800
H267        H  0.76104411  0.08882669  0.71115463     0.08900
H268        H  0.81702347  0.08680137  0.64917902     0.12200
H269        H  0.80308590  0.93685595  0.63789277     0.14000
C270        C  0.34629011  0.00533574  0.81815900    -0.01500
C271        C  0.32380302  0.96251330  0.80970689    -0.09500
C272        C  0.28803685  0.95907905  0.77628802    -0.18300
C273        C  0.27386880  0.99862172  0.74973058     0.04100
C274        C  0.29697405  0.04201930  0.75848866     0.18200
C275        C  0.33251080  0.04504051  0.79265268    -0.19800
C276        C  0.28479730  0.08211772  0.73283142    -0.21000
C277        C  0.25005650  0.08016030  0.69854137    -0.19600
C278        C  0.22658907  0.03807028  0.68909381     0.19600
C279        C  0.23799952  0.99665187  0.71456918     0.01800
C280        C  0.21314192  0.95509766  0.70348103    -0.14300
C281        C  0.17909618  0.95462028  0.66809809    -0.12000
C282        C  0.16848749  0.99539490  0.64279068     0.01300
C283        C  0.19199945  0.03712024  0.65388228    -0.24200
H284        H  0.33388314  0.93137021  0.82912502     0.09300
H285        H  0.27249924  0.92491911  0.77189977     0.12900
H286        H  0.35007279  0.07823545  0.79863747     0.11600
H287        H  0.30238899  0.11523567  0.73922174     0.12800
H288        H  0.24156402  0.11181016  0.67916526     0.11800
H289        H  0.21927111  0.92230936  0.72128318     0.08900
H290        H  0.16112854  0.92200953  0.66056997     0.12200
H291        H  0.18393950  0.06890013  0.63450214     0.14000
C292        C  0.16908192  0.99660546  0.34594352    -0.01500
C293        C  0.18632121  0.03980298  0.32996755    -0.09500
C294        C  0.22045316  0.04182304  0.29475404    -0.18300
C295        C  0.23870822  0.00039483  0.27436765     0.04100
C296        C  0.22058537  0.95669993  0.29041958     0.18200
C297        C  0.18599780  0.95524981  0.32555733    -0.19800
C298        C  0.23755485  0.91456588  0.27182804    -0.21000
C299        C  0.27267524  0.91469693  0.23797043    -0.19600
C300        C  0.29149700  0.95698187  0.22158437     0.19600
C301        C  0.27459200  0.00054334  0.23917041     0.01800
C302        C  0.29467354  0.04215247  0.22091290    -0.14300
C303        C  0.33045207  0.04042290  0.18732387    -0.12000
C304        C  0.34735827  0.99734717  0.17071595     0.01300
C305        C  0.32742454  0.95581181  0.18781565    -0.24200
H306        H  0.17367671  0.07230906  0.34508351     0.09300
H307        H  0.23218392  0.07636680  0.28466890     0.12900
H308        H  0.17288247  0.92161374  0.33751681     0.11600
H309        H  0.22385903  0.88117806  0.28390306     0.12800
H310        H  0.28534411  0.88140997  0.22460067     0.11800
H311        H  0.28362406  0.07662651  0.23193397     0.08900
H312        H  0.34510710  0.07305333  0.17443790     0.12200
H313        H  0.34005973  0.92225144  0.17519674     0.14000
C314        C  0.64452882  0.99639329  0.16785282    -0.01500
C315        C  0.66200892  0.95444835  0.18653254    -0.09500
C316        C  0.69855787  0.95470979  0.21915057    -0.18300
C317        C  0.71905982  0.99727470  0.23432554     0.04100
C318        C  0.70189705  0.03978131  0.21451501     0.18200
C319        C  0.66491350  0.03897582  0.18170692    -0.19800
C320        C  0.72136936  0.08283619  0.22797977    -0.21000
C321        C  0.75678283  0.08472563  0.26167671    -0.19600
C322        C  0.77345309  0.04361893  0.28286490     0.19600
C323        C  0.75529490  0.99922105  0.26901982     0.01800
C324        C  0.77353963  0.95874905  0.29123840    -0.14300
C325        C  0.80690864  0.96235615  0.32686134    -0.12000
C326        C  0.82346505  0.00618414  0.34152536     0.01300
C327        C  0.80741517  0.04669377  0.31866741    -0.24200
H328        H  0.64708928  0.92102269  0.17647325     0.09300
H329        H  0.70959716  0.92091722  0.23200543     0.12900
H330        H  0.65177945  0.07163159  0.16716731     0.11600
H331        H  0.70872573  0.11534724  0.21274756     0.12800
H332        H  0.77068766  0.11865352  0.27179414     0.11800
H333        H  0.76230931  0.92374246  0.28254727     0.08900
H334        H  0.81919278  0.93047131  0.34360299     0.12200
H335        H  0.82038559  0.08077088  0.32942719     0.14000
C336        C  0.00178670  0.17602908  0.64323203    -0.01500
C337        C  0.04320660  0.18452787  0.66841288    -0.09500
C338        C  0.04431506  0.21751126  0.70456182    -0.18300
C339        C  0.00375671  0.24351910  0.71667625     0.04100
C340        C  0.96153451  0.23418960  0.69153755     0.18200
C341        C  0.96085227  0.20050115  0.65544824    -0.19800
C342        C  0.92042802  0.25905102  0.70205560    -0.21000
C343        C  0.92047610  0.29362155  0.73654061    -0.19600
C344        C  0.96160267  0.30411367  0.76145541     0.19600
C345        C  0.00376010  0.27890847  0.75223714     0.01800
C346        C  0.04423582  0.29071675  0.77859873    -0.14300
C347        C  0.04319084  0.32683717  0.81160705    -0.12000
C348        C  0.00191236  0.35226618  0.81977791     0.01300
C349        C  0.96099741  0.34021052  0.79511859    -0.24200
H350        H  0.07522729  0.16575485  0.66017640     0.09300
H351        H  0.07763835  0.22207288  0.72192814     0.12900
H352        H  0.92858617  0.19405147  0.63618534     0.11600
H353        H  0.88810295  0.25206143  0.68311560     0.12800
H354        H  0.88818886  0.31258768  0.74347945     0.11800
H355        H  0.07741956  0.27305541  0.77437336     0.08900
H356        H  0.07513555  0.33487221  0.83065418     0.12200
H357        H  0.92880993  0.35960256  0.80139729     0.14000
C358        C  0.98755603  0.82769858  0.64313643    -0.01500
C359        C  0.03046110  0.81917058  0.66565805    -0.09500
C360        C  0.03359842  0.78704245  0.70252313    -0.18300
C361        C  0.99368805  0.76169798  0.71776634     0.04100
C362        C  0.95014049  0.77046074  0.69471198     0.18200
C363        C  0.94735953  0.80358442  0.65815736    -0.19800
C364        C  0.90983274  0.74541693  0.70759358    -0.21000
C365        C  0.91204139  0.71095636  0.74213144    -0.19600
C366        C  0.95447903  0.70109822  0.76503763     0.19600
C367        C  0.99571862  0.72700643  0.75399912     0.01800
C368        C  0.03733689  0.71643878  0.77919149    -0.14300
C369        C  0.03852281  0.67992242  0.81189711    -0.12000
C370        C  0.99832690  0.65317244  0.82097965     0.01300
C371        C  0.95612041  0.66474117  0.79831371    -0.24200
H372        H  0.06199412  0.83745305  0.65467168     0.09300
H373        H  0.06795935  0.78225545  0.71767970     0.12900
H374        H  0.91406932  0.80961269  0.64062465     0.11600
H375        H  0.87653165  0.75192003  0.69022577     0.12800
H376        H  0.88041155  0.69153512  0.75064770     0.11800
H377        H  0.06967290  0.73542428  0.77421281     0.08900
H378        H  0.07126759  0.67247875  0.82983190     0.12200
H379        H  0.92462921  0.64460557  0.80566581     0.14000
C380        C  0.98648923  0.64883350  0.17074817    -0.01500
C381        C  0.02948731  0.66387798  0.18933750    -0.09500
C382        C  0.03120339  0.69900752  0.22342937    -0.18300
C383        C  0.98962819  0.72047387  0.24018799     0.04100
C384        C  0.94606527  0.70549404  0.22073701     0.18200
C385        C  0.94488549  0.66998571  0.18648698    -0.19800
C386        C  0.90389667  0.72595983  0.23564066    -0.21000
C387        C  0.90395901  0.76093834  0.26967797    -0.19600
C388        C  0.94616130  0.77609226  0.28993372     0.19600
C389        C  0.98965416  0.75610585  0.27552995     0.01800
C390        C  0.03118834  0.77244102  0.29745330    -0.14300
C391        C  0.02951057  0.80678161  0.33233054    -0.12000
C392        C  0.98659671  0.82606501  0.34662493     0.01300
C393        C  0.94505023  0.81083699  0.32494685    -0.24200
H394        H  0.06215457  0.64823187  0.17763762     0.09300
H395        H  0.06568041  0.70850295  0.23588580     0.12900
H396        H  0.91137710  0.65883212  0.17224435     0.11600
H397        H  0.87058290  0.71479748  0.22088459     0.12800
H398        H  0.87069090  0.77602304  0.28048326     0.11800
H399        H  0.06556441  0.75914408  0.28882490     0.08900
H400        H  0.06211041  0.81796378  0.34853092     0.12200
H401        H  0.91160086  0.82556973  0.33558490     0.14000
C402        C  0.99005918  0.35323474  0.16749136    -0.01500
C403        C  0.03344580  0.33231920  0.17764666    -0.09500
C404        C  0.03692709  0.29618225  0.21065939    -0.18300
C405        C  0.99685970  0.27995742  0.23520822     0.04100
C406        C  0.95280795  0.30114641  0.22455075     0.18200
C407        C  0.94974262  0.33701862  0.19067260    -0.19800
C408        C  0.91215928  0.28702039  0.24837091    -0.21000
C409        C  0.91433118  0.25277704  0.28313133    -0.19600
C410        C  0.95713679  0.23145663  0.29469208     0.19600
C411        C  0.99898187  0.24422251  0.27053460     0.01800
C412        C  0.04111039  0.22096356  0.28322498    -0.14300
C413        C  0.04181596  0.18766669  0.31932078    -0.12000
C414        C  0.00070657  0.17620778  0.34380810     0.01300
C415        C  0.95836112  0.19776423  0.33076462    -0.24200
H416        H  0.06509781  0.34410964  0.16007234     0.09300
H417        H  0.07160733  0.28221733  0.21663864     0.12900
H418        H  0.91600975  0.35309790  0.18331396     0.11600
H419        H  0.87848428  0.30300237  0.24047058     0.12800
H420        H  0.88229035  0.24308261  0.30130980     0.11800
H421        H  0.07417458  0.22783547  0.26612522     0.08900
H422        H  0.07489335  0.17107230  0.32815030     0.12200
H423        H  0.92625210  0.18887725  0.34926723     0.14000
loop_ 
_geom_bond_atom_site_label_1 
_geom_bond_atom_site_label_2 
_geom_bond_distance 
_geom_bond_site_symmetry_2 
_ccdc_geom_bond_type 
C1           N19   1.350   1_455  A
C1           C38   1.463       .  S
C1          C414   1.481       .  S
N2           N19   1.324       .  A
N2           N24   1.319   1_655  A
N2          Co39   2.083       .  S
C3           N28   1.340       .  A
C3           C41   1.461       .  S
C3           H48   1.081       .  S
H4           C45   1.081       .  S
C5           N29   1.340       .  A
C5            C9   1.461       .  S
C5           H34   1.081       .  S
Co6          N24   2.084       .  S
Co6          N14   2.077       .  S
Co6          N46   2.078       .  S
Co6          N22   2.084       .  S
Co6         Cl50   2.449   1_455  S
N7           C45   1.341       .  A
N7           N14   1.319   1_565  A
N7           Co8   2.087       .  S
Co8          N11   2.083       .  S
Co8          N28   2.082       .  S
Co8          N15   2.085       .  S
Co8         Cl50   2.448   1_465  S
C9           N47   1.351   1_655  A
C9          C392   1.478       .  S
N10          N17   1.319   1_565  A
N10          N40   1.321       .  A
N10         Co43   2.077       .  S
N11          N29   1.319   1_455  A
N11          N47   1.324       .  A
N12          C41   1.350   1_545  A
N12          N22   1.324       .  A
H13          C38   1.081       .  S
N14          N35   1.323       .  A
N15          N33   1.320   1_455  A
N15          N20   1.323       .  A
C16          N20   1.350   1_655  A
C16          C44   1.462       .  S
C16         C358   1.477       .  S
N17          C32   1.342       .  A
N17         Co39   2.082       .  S
C18          N46   1.338       .  A
C18          C21   1.460       .  S
C18          H52   1.081       .  S
C21          N42   1.352   1_455  A
C21         C336   1.478       .  S
N22          N28   1.319   1_545  A
N23          C49   1.338       .  A
N23          N25   1.320   1_545  A
N23         Co39   2.081       .  S
N24          C38   1.342       .  A
N25          N53   1.325       .  A
N25         Co43   2.084       .  S
H26          C49   1.081       .  S
H27          C44   1.081       .  S
N29         Co43   2.081       .  S
N30          N42   1.326       .  A
N30          N46   1.319   1_655  A
N30         Co39   2.088       .  S
C31          N35   1.349   1_565  A
C31          C45   1.464       .  S
C31         C292   1.478       .  S
C32          C51   1.462       .  S
C32          H36   1.081       .  S
N33          C44   1.342       .  A
N33         Co43   2.084       .  S
C37          N53   1.351   1_545  A
C37          C49   1.461       .  S
C37         C260   1.478       .  S
Co39        Cl50   2.451       .  S
N40          C51   1.348   1_565  A
C41         C282   1.477       .  S
Co43        Cl50   2.451   1_565  S
C51         C326   1.475       .  S
C54          N72   1.351   1_554  A
C54          C91   1.462       .  S
C54         C238   1.481       .  S
N55          N72   1.325       .  A
N55          N77   1.319   1_556  A
N55         Co92   2.088       .  S
C56          N81   1.341       .  A
C56          C94   1.462       .  S
C56         H101   1.081       .  S
H57          C98   1.081       .  S
C58          N82   1.338       .  A
C58          C62   1.459       .  S
C58          H87   1.081       .  S
Co59         N77   2.083       .  S
Co59         N67   2.090       .  S
Co59         N99   2.096       .  S
Co59         N75   2.085       .  S
Co59       Cl103   2.450   1_454  S
N60          C98   1.343       .  A
N60          N67   1.320   1_655  A
N60         Co61   2.090       .  S
Co61         N64   2.090       .  S
Co61         N81   2.084       .  S
Co61         N68   2.093       .  S
Co61       Cl103   2.455   1_554  S
C62         N100   1.352   1_556  A
C62         C194   1.479       .  S
N63          N70   1.319   1_655  A
N63          N93   1.325       .  A
N63         Co96   2.087       .  S
N64          N82   1.319   1_554  A
N64         N100   1.326       .  A
N65          C94   1.351   1_455  A
N65          N75   1.324       .  A
H66          C91   1.081       .  S
N67          N88   1.324       .  A
N68          N86   1.320   1_554  A
N68          N73   1.326       .  A
C69          N73   1.352   1_556  A
C69          C97   1.461       .  S
C69         C160   1.481       .  S
N70          C85   1.338       .  A
N70         Co92   2.078       .  S
C71          N99   1.343       .  A
C71          C74   1.467   1_554  S
C71         H105   1.081       .  S
C74          N95   1.348       .  A
C74         C216   1.481       .  S
N75          N81   1.320   1_455  A
N76         C102   1.341       .  A
N76          N78   1.319   1_455  A
N76         Co92   2.085       .  S
N77          C91   1.341       .  A
N78         N106   1.323       .  A
N78         Co96   2.077       .  S
H79         C102   1.081       .  S
H80          C97   1.081       .  S
N82         Co96   2.077       .  S
N83          N95   1.323       .  A
N83          N99   1.320   1_556  A
N83         Co92   2.077       .  S
C84          N88   1.350   1_655  A
C84          C98   1.464       .  S
C84         C402   1.481       .  S
C85         C104   1.460       .  S
C85          H89   1.081       .  S
N86          C97   1.341       .  A
N86         Co96   2.085       .  S
C90         N106   1.349   1_455  A
C90         C102   1.462       .  S
C90         C370   1.476   1_455  S
Co92       Cl103   2.449   1_455  S
N93         C104   1.351   1_655  A
C94         C380   1.479       .  S
Co96       Cl103   2.451       .  S
C104        C348   1.478       .  S
C107        N125   1.351   1_565  A
C107        C144   1.461       .  S
C107        C314   1.478       .  S
N108        N125   1.325       .  A
N108        N130   1.320   1_545  A
N108       Co145   2.085       .  S
C109        N134   1.340       .  A
C109        C147   1.459       .  S
C109        H154   1.081       .  S
H110        C151   1.081       .  S
C111        N135   1.339       .  A
C111        C115   1.461       .  S
C111        H140   1.081       .  S
Co112       N130   2.083       .  S
Co112       N120   2.091       .  S
Co112       N152   2.086       .  S
Co112       N128   2.094       .  S
Co112      Cl156   2.452   1_564  S
N113        C151   1.340       .  A
N113        N120   1.319   1_556  A
N113       Co114   2.081       .  S
Co114       N117   2.079       .  S
Co114       N134   2.078       .  S
Co114       N121   2.079       .  S
Co114      Cl156   2.448   1_565  S
C115        N153   1.349   1_545  A
C115        C248   1.476       .  S
N116        N123   1.319   1_556  A
N116        N146   1.322       .  A
N116       Co149   2.078       .  S
N117        N135   1.319   1_565  A
N117        N153   1.324       .  A
N118        C147   1.354   1_554  A
N118        N128   1.326       .  A
H119        C144   1.081       .  S
N120        N141   1.326       .  A
N121        N139   1.319   1_565  A
N121        N126   1.323       .  A
C122        N126   1.349   1_545  A
C122        C150   1.462       .  S
C122        C270   1.475       .  S
N123        C138   1.344       .  A
N123       Co145   2.089       .  S
C124        N152   1.340       .  A
C124        C127   1.463       .  S
C124        H158   1.081       .  S
C127        N148   1.350   1_565  A
C127        C304   1.479       .  S
N128        N134   1.319   1_554  A
N129        C155   1.341       .  A
N129        N131   1.320   1_554  A
N129       Co145   2.086       .  S
N130        C144   1.338       .  A
N131        N159   1.324       .  A
N131       Co149   2.086       .  S
H132        C155   1.081       .  S
H133        C150   1.081       .  S
N135       Co149   2.082       .  S
N136        N148   1.324       .  A
N136        N152   1.320   1_545  A
N136       Co145   2.085       .  S
C137        N141   1.352   1_556  A
C137        C151   1.460       .  S
C137        C172   1.480       .  S
C138        C157   1.465   1_554  S
C138        H142   1.081       .  S
N139        C150   1.341       .  A
N139       Co149   2.082       .  S
C143        N159   1.351   1_554  A
C143        C155   1.462       .  S
C143        C226   1.481       .  S
Co145      Cl156   2.452   1_554  S
N146        C157   1.348       .  A
C147        C204   1.482       .  S
Co149      Cl156   2.450       .  S
C157        C182   1.479       .  S
C160        C161   1.401       .  A
C160        C165   1.401   1_556  A
C161        H174   1.083       .  S
C161        C162   1.398       .  A
C162        H175   1.077       .  S
C162        C163   1.416       .  A
C163        C169   1.432       .  A
C163        C164   1.423   1_556  A
C164        C166   1.399       .  A
C164        C165   1.406       .  A
C165        H176   1.084       .  S
C166        H177   1.084       .  S
C166        C167   1.390       .  A
C167        H178   1.084       .  S
C167        C168   1.399       .  A
C168        C169   1.423   1_554  A
C168        C173   1.407       .  A
C169        C170   1.415       .  A
C170        H179   1.077       .  S
C170        C171   1.397       .  A
C171        H180   1.083       .  S
C171        C172   1.400       .  A
C172        C173   1.401   1_556  A
C173        H181   1.084       .  S
C182        C183   1.401       .  A
C182        C187   1.401   1_556  A
C183        H196   1.083       .  S
C183        C184   1.394       .  A
C184        H197   1.077       .  S
C184        C185   1.414       .  A
C185        C191   1.430       .  A
C185        C186   1.423   1_556  A
C186        C188   1.399       .  A
C186        C187   1.406       .  A
C187        H198   1.083       .  S
C188        H199   1.084       .  S
C188        C189   1.390       .  A
C189        H200   1.084       .  S
C189        C190   1.399       .  A
C190        C191   1.423   1_554  A
C190        C195   1.406       .  A
C191        C192   1.414       .  A
C192        H201   1.077       .  S
C192        C193   1.395       .  A
C193        H202   1.082       .  S
C193        C194   1.400       .  A
C194        C195   1.401   1_556  A
C195        H203   1.085       .  S
C204        C205   1.402       .  A
C204        C209   1.399   1_556  A
C205        H218   1.082       .  S
C205        C206   1.399       .  A
C206        H219   1.077       .  S
C206        C207   1.415       .  A
C207        C213   1.432       .  A
C207        C208   1.423   1_556  A
C208        C210   1.398       .  A
C208        C209   1.404       .  A
C209        H220   1.084       .  S
C210        H221   1.084       .  S
C210        C211   1.388       .  A
C211        H222   1.084       .  S
C211        C212   1.398       .  A
C212        C213   1.423   1_554  A
C212        C217   1.405       .  A
C213        C214   1.415       .  A
C214        H223   1.077       .  S
C214        C215   1.399       .  A
C215        H224   1.083       .  S
C215        C216   1.402       .  A
C216        C217   1.399   1_556  A
C217        H225   1.083       .  S
C226        C227   1.400   1_554  A
C226        C231   1.402       .  A
C227        H240   1.083       .  S
C227        C228   1.396       .  A
C228        H241   1.077       .  S
C228        C229   1.415       .  A
C229        C235   1.431       .  A
C229        C230   1.423   1_556  A
C230        C232   1.400       .  A
C230        C231   1.406       .  A
C231        H242   1.083       .  S
C232        H243   1.084       .  S
C232        C233   1.390       .  A
C233        H244   1.084       .  S
C233        C234   1.400       .  A
C234        C235   1.422   1_554  A
C234        C239   1.406       .  A
C235        C236   1.415       .  A
C236        H245   1.077       .  S
C236        C237   1.396       .  A
C237        H246   1.083       .  S
C237        C238   1.400   1_556  A
C238        C239   1.402       .  A
C239        H247   1.083       .  S
C248        C249   1.398       .  A
C248        C253   1.403   1_545  A
C249        H262   1.082       .  S
C249        C250   1.392       .  A
C250        H263   1.077       .  S
C250        C251   1.413       .  A
C251        C257   1.426       .  A
C251        C252   1.421   1_545  A
C252        C254   1.401       .  A
C252        C253   1.406       .  A
C253        H264   1.084       .  S
C254        H265   1.084       .  S
C254        C255   1.392       .  A
C255        H266   1.084       .  S
C255        C256   1.401       .  A
C256        C257   1.422   1_565  A
C256        C261   1.407       .  A
C257        C258   1.413       .  A
C258        H267   1.077       .  S
C258        C259   1.392       .  A
C259        H268   1.082       .  S
C259        C260   1.399       .  A
C260        C261   1.403   1_545  A
C261        H269   1.084       .  S
C270        C271   1.399   1_545  A
C270        C275   1.400       .  A
C271        H284   1.084       .  S
C271        C272   1.395       .  A
C272        H285   1.077       .  S
C272        C273   1.415       .  A
C273        C279   1.429       .  A
C273        C274   1.423   1_565  A
C274        C276   1.399       .  A
C274        C275   1.404       .  A
C275        H286   1.084       .  S
C276        H287   1.084       .  S
C276        C277   1.389       .  A
C277        H288   1.084       .  S
C277        C278   1.399       .  A
C278        C279   1.422   1_545  A
C278        C283   1.404       .  A
C279        C280   1.415       .  A
C280        H289   1.077       .  S
C280        C281   1.396       .  A
C281        H290   1.082       .  S
C281        C282   1.399       .  A
C282        C283   1.401   1_565  A
C283        H291   1.084       .  S
C292        C293   1.401   1_565  A
C292        C297   1.399       .  A
C293        H306   1.083       .  S
C293        C294   1.396       .  A
C294        H307   1.078       .  S
C294        C295   1.415       .  A
C295        C301   1.430       .  A
C295        C296   1.423   1_545  A
C296        C298   1.398       .  A
C296        C297   1.403       .  A
C297        H308   1.084       .  S
C298        H309   1.084       .  S
C298        C299   1.388       .  A
C299        H310   1.084       .  S
C299        C300   1.399       .  A
C300        C301   1.423   1_565  A
C300        C305   1.403       .  A
C301        C302   1.415       .  A
C302        H311   1.078       .  S
C302        C303   1.397       .  A
C303        H312   1.083       .  S
C303        C304   1.401   1_545  A
C304        C305   1.400       .  A
C305        H313   1.083       .  S
C314        C315   1.399       .  A
C314        C319   1.402   1_565  A
C315        H328   1.082       .  S
C315        C316   1.393       .  A
C316        H329   1.077       .  S
C316        C317   1.414       .  A
C317        C323   1.427       .  A
C317        C318   1.422   1_565  A
C318        C320   1.400       .  A
C318        C319   1.406       .  A
C319        H330   1.084       .  S
C320        H331   1.084       .  S
C320        C321   1.391       .  A
C321        H332   1.084       .  S
C321        C322   1.400       .  A
C322        C323   1.423   1_545  A
C322        C327   1.406       .  A
C323        C324   1.413       .  A
C324        H333   1.077       .  S
C324        C325   1.392       .  A
C325        H334   1.083       .  S
C325        C326   1.399   1_565  A
C326        C327   1.401       .  A
C327        H335   1.083       .  S
C336        C337   1.400       .  A
C336        C341   1.401   1_455  A
C337        H350   1.082       .  S
C337        C338   1.394       .  A
C338        H351   1.076       .  S
C338        C339   1.414       .  A
C339        C345   1.429       .  A
C339        C340   1.422   1_455  A
C340        C342   1.400       .  A
C340        C341   1.406       .  A
C341        H352   1.084       .  S
C342        H353   1.084       .  S
C342        C343   1.391       .  A
C343        H354   1.084       .  S
C343        C344   1.400       .  A
C344        C345   1.422   1_655  A
C344        C349   1.406       .  A
C345        C346   1.414       .  A
C346        H355   1.076       .  S
C346        C347   1.394       .  A
C347        H356   1.082       .  S
C347        C348   1.399       .  A
C348        C349   1.401   1_455  A
C349        H357   1.084       .  S
C358        C359   1.399   1_655  A
C358        C363   1.401       .  A
C359        H372   1.084       .  S
C359        C360   1.394       .  A
C360        H373   1.077       .  S
C360        C361   1.414   1_455  A
C361        C367   1.429       .  A
C361        C362   1.423       .  A
C362        C364   1.400       .  A
C362        C363   1.406       .  A
C363        H374   1.083       .  S
C364        H375   1.084       .  S
C364        C365   1.390       .  A
C365        H376   1.084       .  S
C365        C366   1.400       .  A
C366        C367   1.421       .  A
C366        C371   1.404       .  A
C367        C368   1.416   1_655  A
C368        H377   1.077       .  S
C368        C369   1.396       .  A
C369        H378   1.082       .  S
C369        C370   1.399   1_455  A
C370        C371   1.401       .  A
C371        H379   1.084       .  S
C380        C381   1.400   1_655  A
C380        C385   1.402       .  A
C381        H394   1.083       .  S
C381        C382   1.395       .  A
C382        H395   1.077       .  S
C382        C383   1.414   1_455  A
C383        C389   1.429       .  A
C383        C384   1.422       .  A
C384        C386   1.400       .  A
C384        C385   1.405       .  A
C385        H396   1.083       .  S
C386        H397   1.084       .  S
C386        C387   1.390       .  A
C387        H398   1.084       .  S
C387        C388   1.400       .  A
C388        C389   1.422       .  A
C388        C393   1.405       .  A
C389        C390   1.414   1_655  A
C390        H399   1.077       .  S
C390        C391   1.395       .  A
C391        H400   1.083       .  S
C391        C392   1.399   1_455  A
C392        C393   1.402       .  A
C393        H401   1.083       .  S
C402        C403   1.400   1_655  A
C402        C407   1.402       .  A
C403        H416   1.083       .  S
C403        C404   1.397       .  A
C404        H417   1.077       .  S
C404        C405   1.415   1_455  A
C405        C411   1.431       .  A
C405        C406   1.423       .  A
C406        C408   1.400       .  A
C406        C407   1.407       .  A
C407        H418   1.083       .  S
C408        H419   1.084       .  S
C408        C409   1.390       .  A
C409        H420   1.084       .  S
C409        C410   1.400       .  A
C410        C411   1.422       .  A
C410        C415   1.405       .  A
C411        C412   1.416   1_655  A
C412        H421   1.077       .  S
C412        C413   1.398       .  A
C413        H422   1.082       .  S
C413        C414   1.400       .  A
C414        C415   1.402   1_455  A
C415        H423   1.084       .  S
