geometry optimzed in LAMMPS
_audit_creation_date              2020-12-01 
_audit_creation_method            'lammps2cif' 
_symmetry_space_group_name_H-M    'P1' 
_symmetry_Int_Tables_number       1 
_symmetry_cell_setting            triclinic 
loop_ 
_symmetry_equiv_pos_as_xyz 
  x,y,z 
_cell_length_a                    46.03148839 
_cell_length_b                    46.03833577212215 
_cell_length_c                    46.04406933638502 
_cell_angle_alpha                 89.9696410137704 
_cell_angle_beta                  89.98271582383323 
_cell_angle_gamma                 89.98248092053069 
loop_ 
_atom_site_label 
_atom_site_type_symbol 
_atom_site_fract_x 
_atom_site_fract_y 
_atom_site_fract_z 
_atom_site_charge 
O1          O  0.41866737  0.00117739  0.20168609    -0.74000
O2          O  0.45493882  0.00001358  0.16779245    -0.52900
C3          C  0.42808943  0.00087025  0.17537118     0.79700
O4          O  0.50120688  0.08118297  0.29951153    -0.58600
O5          O  0.50052482  0.04485266  0.33335324    -0.51600
C6          C  0.50108115  0.07172080  0.32581206     0.71800
O7          O  0.49864997  0.08100224  0.20146580    -0.73100
O8          O  0.99955717  0.04462311  0.16769436    -0.53700
C9          C  0.49886239  0.07148394  0.17518757     0.77800
O10         O  0.41880223  0.99843170  0.29965586    -0.58300
O11         O  0.45513587  0.49922768  0.33337530    -0.51400
C12         C  0.42834268  0.99870222  0.32592163     0.74400
Zr13       Zr  0.43912117  0.99936960  0.25064618     2.54700
O14         O  0.40190576  0.03691222  0.25183353    -0.78900
O15         O  0.40365998  0.46014388  0.25000831    -0.92300
Zr16       Zr  0.49985920  0.06076412  0.25053618     2.64700
O17         O  0.46137255  0.09708361  0.25113920    -0.97200
O18         O  0.03790844  0.09749282  0.25008797    -0.79300
O19         O  0.46901346  0.03049525  0.22246654    -0.82600
O20         O  0.46900587  0.03058677  0.27870347    -2.17400
O21         O  0.99921063  0.41824100  0.29950803    -0.66000
O22         O  0.49967042  0.45456757  0.33334170    -0.50600
C23         C  0.99918234  0.42770471  0.32580271     0.72700
O24         O  0.08154163  0.49826410  0.20147451    -0.58900
O25         O  0.04512261  0.99921040  0.16772139    -0.50900
C26         C  0.07202565  0.49844819  0.17519600     0.74500
O27         O  0.08160386  0.50107253  0.29946245    -0.70300
O28         O  0.04530925  0.50013336  0.33335009    -0.49000
C29         C  0.07216380  0.50082270  0.32577218     0.75900
O30         O  0.00135404  0.41826669  0.20148923    -0.65700
O31         O  0.00050393  0.45461031  0.16765798    -0.52900
C32         C  0.00114172  0.42774473  0.17518849     0.74300
Zr33       Zr  0.00050871  0.43863404  0.25049933     2.77500
O34         O  0.03940873  0.40276908  0.25051984    -0.96400
O35         O  0.46268826  0.40171267  0.24967512    -0.77200
Zr36       Zr  0.06120469  0.50000276  0.25046816     2.70100
O37         O  0.09852545  0.46256927  0.25182506    -0.78500
O38         O  0.09666472  0.03919057  0.24871418    -0.97600
Zr39       Zr  0.00004617  0.99962417  0.19491175     2.21500
Zr40       Zr  0.50022048  0.49969352  0.30621918     2.11100
O41         O  0.03135480  0.46882303  0.27862659    -2.46300
O42         O  0.03128097  0.46887627  0.22234228    -0.78300
O43         O  0.46944367  0.46857866  0.27872175    -0.70500
O44         O  0.03093343  0.03081306  0.22235201    -2.31400
O45         O  0.46924111  0.46847418  0.22242752    -2.27600
O46         O  0.03102946  0.03086432  0.27867576    -0.72200
H47         H  0.45707409  0.04239382  0.29129066     0.79800
H48         H  0.04276579  0.04266885  0.20971280     0.80900
H49         H  0.04331038  0.45701030  0.29118933     0.83100
H50         H  0.45740605  0.45655987  0.20986802     0.80700
H51         H  0.05302759  0.08961258  0.23698297     0.43700
H52         H  0.09071088  0.05261049  0.26442655     0.42700
H53         H  0.08980043  0.44590568  0.24141367     0.42400
H54         H  0.05027305  0.40634185  0.26872266     0.40300
H55         H  0.44615532  0.41070126  0.26009362     0.43400
H56         H  0.40677053  0.45009944  0.23125613     0.38200
H57         H  0.41081814  0.05363881  0.24166165     0.44300
H58         H  0.44924026  0.09204425  0.26816879     0.40700
H59         H  0.02943829  0.38399224  0.25376767     0.45700
H60         H  0.38470174  0.47005770  0.24775946     0.44400
H61         H  0.47124413  0.11534649  0.25674121     0.44500
H62         H  0.11492460  0.03029769  0.25580231     0.44900
O63         O  0.49861309  0.20038233  0.08175970    -0.74000
O64         O  0.99970135  0.16658714  0.04542820    -0.52900
C65         C  0.49887337  0.17408754  0.07227256     0.79700
O66         O  0.41886307  0.29890843  0.99961209    -0.58600
O67         O  0.45532302  0.33259799  0.00036539    -0.51600
C68         C  0.42842642  0.32516436  0.99977040     0.71800
O69         O  0.41857455  0.20096949  0.00186179    -0.73100
O70         O  0.45487153  0.16706588  0.00122015    -0.53700
C71         C  0.42801630  0.17465610  0.00177127     0.77800
O72         O  0.50179152  0.29853763  0.08203306    -0.58300
O73         O  0.50104812  0.33241830  0.04572184    -0.51400
C74         C  0.50167422  0.32485015  0.07257406     0.74400
Zr75       Zr  0.50051384  0.24954855  0.06164157     2.54700
O76         O  0.46295838  0.25099629  0.09883750    -0.78900
O77         O  0.03942804  0.24855774  0.09745926    -0.92300
Zr78       Zr  0.43913447  0.24987566  0.00086762     2.64700
O79         O  0.40270388  0.25036925  0.03924701    -0.97200
O80         O  0.40281037  0.24978016  0.46242617    -0.79300
O81         O  0.46928422  0.22159536  0.03168915    -0.82600
O82         O  0.46942900  0.27783580  0.03177785    -2.17400
O83         O  0.08184974  0.29834152  0.50168615    -0.66000
O84         O  0.04560279  0.33229299  0.00114506    -0.50600
C85         C  0.07245214  0.32466778  0.50168330     0.72700
O86         O  0.00144199  0.20070632  0.41922878    -0.58900
O87         O  0.00042099  0.16685073  0.45554511    -0.50900
C88         C  0.00117153  0.17439872  0.42869010     0.74500
O89         O  0.99897312  0.29869306  0.41924006    -0.70300
O90         O  0.49984182  0.33252137  0.45555401    -0.49000
C91         C  0.99917690  0.32498752  0.42869703     0.75900
O92         O  0.08153260  0.20040425  0.99928713    -0.65700
O93         O  0.04505999  0.16672732  0.00025842    -0.52900
C94         C  0.07194893  0.17415086  0.49958831     0.74300
Zr95       Zr  0.06126261  0.24944165  0.00026359     2.77500
O96         O  0.09717131  0.24957565  0.46140430    -0.96400
O97         O  0.09799909  0.24847215  0.03826168    -0.77200
Zr98       Zr  0.99983472  0.24968264  0.43961198     2.70100
O99         O  0.03676554  0.25078001  0.40180253    -0.78500
O100        O  0.46030174  0.24831189  0.40454310    -0.97600
Zr101      Zr  0.00006662  0.19401773  0.00059070     2.21500
Zr102      Zr  0.50038336  0.30532837  0.00063646     2.11100
O103        O  0.03114932  0.27770400  0.46943447    -2.46300
O104        O  0.03094570  0.22142441  0.46946103    -0.78300
O105        O  0.03137734  0.27763222  0.03138788    -0.70500
O106        O  0.46895108  0.22159599  0.46976493    -2.31400
O107        O  0.03132832  0.22138229  0.03145756    -2.27600
O108        O  0.46917877  0.27798393  0.46983504    -0.72200
H109        H  0.45766785  0.29044553  0.04372966     0.79800
H110        H  0.45706532  0.20901919  0.45792287     0.80900
H111        H  0.04298774  0.29025124  0.45748748     0.83100
H112        H  0.04322244  0.20874781  0.04325657     0.80700
H113        H  0.41062280  0.23642553  0.44749795     0.43700
H114        H  0.44755376  0.26473709  0.41005670     0.42700
H115        H  0.05404727  0.24177498  0.41090653     0.42400
H116        H  0.09352831  0.26776239  0.45051337     0.40300
H117        H  0.08872994  0.25838837  0.05494202     0.43400
H118        H  0.05003948  0.23023476  0.09368815     0.38200
H119        H  0.44621701  0.24081226  0.08999050     0.44300
H120        H  0.40807542  0.26699368  0.05177100     0.40700
H121        H  0.11592900  0.25289692  0.47138057     0.45700
H122        H  0.02941840  0.24524350  0.11620696     0.44400
H123        H  0.38458770  0.25660461  0.02946921     0.44500
H124        H  0.46931049  0.25444051  0.38599672     0.44900
O125        O  0.29898118  0.08117954  0.00190800    -0.74000
O126        O  0.33297565  0.04499488  0.00093625    -0.52900
C127        C  0.32532795  0.07181547  0.00169213     0.79700
O128        O  0.20106288  0.49831374  0.08188893    -0.58600
O129        O  0.16737437  0.99922004  0.04560848    -0.51600
C130        C  0.17486892  0.99857099  0.07248343     0.71800
O131        O  0.29896595  0.50097570  0.08206844    -0.73100
O132        O  0.33284508  0.50038694  0.04575139    -0.53700
C133        C  0.32532023  0.00080488  0.07256417     0.77800
O134        O  0.20085311  0.08088418  0.99905368    -0.58300
O135        O  0.16713809  0.04444101  0.99987653    -0.51400
C136        C  0.17458595  0.07131745  0.99923678     0.74400
Zr137      Zr  0.24997179  0.06075286  0.00020141     2.54700
O138        O  0.24863832  0.09788305  0.03778258    -0.78900
O139        O  0.25066513  0.09666608  0.46134709    -0.92300
Zr140      Zr  0.25005088  0.49990804  0.06151978     2.64700
O141        O  0.24956708  0.03842581  0.09772024    -0.97200
O142        O  0.25062829  0.46157947  0.09798529    -0.79300
O143        O  0.27814286  0.03085595  0.03134237    -0.82600
O144        O  0.22191953  0.03073966  0.03135713    -2.17400
O145        O  0.20128104  0.00075563  0.41904006    -0.66000
O146        O  0.16741191  0.00013765  0.45536192    -0.50600
C147        C  0.17503276  0.50078531  0.42842046     0.72700
O148        O  0.29944551  0.41851014  0.99947147    -0.58900
O149        O  0.33317409  0.45494231  0.00006169    -0.50900
C150        C  0.32571846  0.42805652  0.49956347     0.74500
O151        O  0.20148774  0.41815474  0.00178947    -0.70300
O152        O  0.16751361  0.45437388  0.00109475    -0.49000
C153        C  0.17515352  0.42753389  0.50169539     0.75900
O154        O  0.29928921  0.99897644  0.41903819    -0.65700
O155        O  0.33305514  0.49973040  0.45549130    -0.52900
C156        C  0.32556432  0.49914218  0.42862495     0.74300
Zr157      Zr  0.25028444  0.99950988  0.43940990     2.77500
O158        O  0.25066833  0.46057078  0.40365112    -0.96400
O159        O  0.25080361  0.03716179  0.40227394    -0.77200
Zr160      Zr  0.25038969  0.43874848  0.00077056     2.70100
O161        O  0.24940035  0.40137102  0.46343137    -0.78500
O162        O  0.25208560  0.40334492  0.04001313    -0.97600
Zr163      Zr  0.30585966  0.49993911  0.00054255     2.21500
Zr164      Zr  0.19451600  0.99953452  0.00045992     2.11100
O165        O  0.22217155  0.46852759  0.46955211    -2.46300
O166        O  0.27851418  0.46875933  0.46969657    -0.78300
O167        O  0.22197263  0.03045179  0.46937891    -0.70500
O168        O  0.27839306  0.46897010  0.03161285    -2.31400
O169        O  0.27826005  0.03076421  0.46931621    -2.27600
O170        O  0.22201120  0.46879578  0.03153360    -0.72200
H171        H  0.20928156  0.04262646  0.04315446     0.79800
H172        H  0.29102344  0.45714096  0.04347912     0.80900
H173        H  0.20963932  0.45656748  0.45773425     0.83100
H174        H  0.29080926  0.04264985  0.45741718     0.80700
H175        H  0.26440636  0.44692294  0.09037826     0.43700
H176        H  0.23602337  0.40901623  0.05314877     0.42700
H177        H  0.25949929  0.41026488  0.44665168     0.42400
H178        H  0.23306323  0.44897185  0.40788430     0.40300
H179        H  0.24179690  0.05422162  0.41177785     0.43400
H180        H  0.26911827  0.09318922  0.45085583     0.38200
H181        H  0.25935117  0.08920246  0.05428892     0.44300
H182        H  0.23248908  0.05050913  0.09272016     0.40700
H183        H  0.24635995  0.47035731  0.38498884     0.45700
H184        H  0.25362091  0.11543941  0.47140150     0.44400
H185        H  0.24405863  0.02859152  0.11604098     0.44500
H186        H  0.24549704  0.38495876  0.03102431     0.44900
C187        C  0.34856427  0.40683606  0.49924065    -0.17200
C188        C  0.36739863  0.38862808  0.99915611     0.06900
C189        C  0.38905443  0.36689587  0.99920130     0.08700
C190        C  0.40721814  0.34801969  0.99937317    -0.18100
C191        C  0.40672099  0.15190321  0.00219369    -0.17200
C192        C  0.38852612  0.13307185  0.00237900     0.06900
C193        C  0.36685003  0.11137739  0.00238512     0.08700
C194        C  0.34803856  0.09316022  0.00219233    -0.18100
C195        C  0.15245605  0.40617013  0.50216997    -0.17200
C196        C  0.13369249  0.38790028  0.50238395     0.06900
C197        C  0.11203151  0.36618340  0.50239660     0.08700
C198        C  0.09380052  0.34738144  0.50218963    -0.18100
C199        C  0.15172683  0.09249202  0.99889657    -0.17200
C200        C  0.13285544  0.11064336  0.99887913     0.06900
C201        C  0.11121060  0.13235710  0.99904805     0.08700
C202        C  0.09310609  0.15127304  0.49925753    -0.18100
C203        C  0.34837465  0.49882339  0.40740527    -0.17200
C204        C  0.36721076  0.49857465  0.38922371     0.06900
C205        C  0.38901323  0.99840320  0.36763389     0.08700
C206        C  0.40715123  0.99842020  0.34875585    -0.18100
C207        C  0.15227303  0.50128331  0.40713212    -0.17200
C208        C  0.13343201  0.50145222  0.38894807     0.06900
C209        C  0.11170794  0.50140713  0.36730443     0.08700
C210        C  0.09347034  0.50121845  0.34851586    -0.18100
C211        C  0.15206009  0.99815405  0.09374300    -0.17200
C212        C  0.13321070  0.99798262  0.11193417     0.06900
C213        C  0.11144217  0.49783412  0.13352069     0.08700
C214        C  0.09326036  0.49797337  0.15237453    -0.18100
C215        C  0.34810031  0.00117780  0.09384421    -0.17200
C216        C  0.36690845  0.00138563  0.11206948     0.06900
C217        C  0.38857297  0.00147318  0.13378668     0.08700
C218        C  0.40677511  0.00134700  0.15261956    -0.18100
C219        C  0.50146826  0.09300641  0.34858879    -0.17200
C220        C  0.50163494  0.11118721  0.36743751     0.06900
C221        C  0.00168079  0.13282571  0.38917644     0.08700
C222        C  0.00157140  0.15162239  0.40740995    -0.18100
C223        C  0.99868756  0.40641806  0.34858585    -0.17200
C224        C  0.99848719  0.38822146  0.36743105     0.06900
C225        C  0.99851634  0.36656000  0.38915884     0.08700
C226        C  0.99873638  0.34776092  0.40740199    -0.18100
C227        C  0.00158814  0.40648023  0.15240157    -0.17200
C228        C  0.00190452  0.38826003  0.13359827     0.06900
C229        C  0.50212057  0.36651015  0.11198134     0.08700
C230        C  0.50207882  0.34762914  0.09384098    -0.18100
C231        C  0.49836078  0.15126428  0.09349895    -0.17200
C232        C  0.49818714  0.13241868  0.11168480     0.06900
C233        C  0.49822048  0.11079716  0.13343415     0.08700
C234        C  0.49842006  0.09269015  0.15235268    -0.18100
O235        O  0.41866739  0.00117747  0.70168607    -0.74000
O236        O  0.45493888  0.00001366  0.66779248    -0.52900
C237        C  0.42808948  0.00087033  0.67537117     0.79700
O238        O  0.50120699  0.08118293  0.79951157    -0.58600
O239        O  0.50052493  0.04485256  0.83335323    -0.51600
C240        C  0.50108127  0.07172071  0.82581210     0.71800
O241        O  0.49864986  0.08100228  0.70146583    -0.73100
O242        O  0.99955709  0.04462318  0.66769436    -0.53700
C243        C  0.49886233  0.07148400  0.67518759     0.77800
O244        O  0.41880232  0.99843172  0.79965585    -0.58300
O245        O  0.45513594  0.49922775  0.83337531    -0.51400
C246        C  0.42834273  0.99870219  0.82592164     0.74400
Zr247      Zr  0.43912120  0.99936967  0.75064616     2.54700
O248        O  0.40190586  0.03691231  0.75183353    -0.78900
O249        O  0.40366000  0.46014395  0.75000836    -0.92300
Zr250      Zr  0.49985925  0.06076405  0.75053621     2.64700
O251        O  0.46137249  0.09708340  0.75113922    -0.97200
O252        O  0.03790857  0.09749263  0.75008793    -0.79300
O253        O  0.46901347  0.03049532  0.72246650    -0.82600
O254        O  0.46900595  0.03058676  0.77870350    -2.17400
O255        O  0.99921073  0.41824089  0.79950796    -0.66000
O256        O  0.49967032  0.45456746  0.83334165    -0.50600
C257        C  0.99918236  0.42770460  0.82580266     0.72700
O258        O  0.08154168  0.49826419  0.70147454    -0.58900
O259        O  0.04512257  0.99921048  0.66772137    -0.50900
C260        C  0.07202568  0.49844817  0.67519604     0.74500
O261        O  0.08160389  0.50107243  0.79946245    -0.70300
O262        O  0.04530928  0.50013344  0.83335007    -0.49000
C263        C  0.07216384  0.50082268  0.82577217     0.75900
O264        O  0.00135397  0.41826671  0.70148916    -0.65700
O265        O  0.00050404  0.45461034  0.66765792    -0.52900
C266        C  0.00114178  0.42774476  0.67518843     0.74300
Zr267      Zr  0.00050864  0.43863400  0.75049925     2.77500
O268        O  0.03940867  0.40276911  0.75051982    -0.96400
O269        O  0.46268841  0.40171264  0.74967484    -0.77200
Zr270      Zr  0.06120464  0.50000281  0.75046817     2.70100
O271        O  0.09852535  0.46256933  0.75182505    -0.78500
O272        O  0.09666459  0.03919048  0.74871416    -0.97600
Zr273      Zr  0.00004613  0.99962419  0.69491172     2.21500
Zr274      Zr  0.50022051  0.49969347  0.80621915     2.11100
O275        O  0.03135473  0.46882301  0.77862650    -2.46300
O276        O  0.03128091  0.46887629  0.72234229    -0.78300
O277        O  0.46944369  0.46857865  0.77872166    -0.70500
O278        O  0.03093318  0.03081281  0.72235228    -2.31400
O279        O  0.46924096  0.46847403  0.72242740    -2.27600
O280        O  0.03102937  0.03086420  0.77867575    -0.72200
H281        H  0.45707424  0.04239388  0.79129068     0.79800
H282        H  0.04276546  0.04266850  0.70971325     0.80900
H283        H  0.04331031  0.45701031  0.79118925     0.83100
H284        H  0.45740581  0.45655962  0.70986783     0.80700
H285        H  0.05302749  0.08961260  0.73698258     0.43700
H286        H  0.09071074  0.05261039  0.76442655     0.42700
H287        H  0.08980032  0.44590575  0.74141366     0.42400
H288        H  0.05027293  0.40634195  0.76872266     0.40300
H289        H  0.44615551  0.41070124  0.76009345     0.43400
H290        H  0.40677073  0.45009940  0.73125626     0.38200
H291        H  0.41081825  0.05363889  0.74166164     0.44300
H292        H  0.44924031  0.09204416  0.76816894     0.40700
H293        H  0.02943823  0.38399227  0.75376767     0.45700
H294        H  0.38470175  0.47005772  0.74775928     0.44400
H295        H  0.47124406  0.11534635  0.75674100     0.44500
H296        H  0.11492448  0.03029760  0.75580227     0.44900
O297        O  0.49861296  0.20038232  0.58175962    -0.74000
O298        O  0.99970128  0.16658710  0.54542817    -0.52900
C299        C  0.49887331  0.17408753  0.57227252     0.79700
O300        O  0.41886313  0.29890839  0.49961210    -0.58600
O301        O  0.45532303  0.33259801  0.50036538    -0.51600
C302        C  0.42842645  0.32516433  0.49977040     0.71800
O303        O  0.41857447  0.20096942  0.50186178    -0.73100
O304        O  0.45487149  0.16706583  0.50122014    -0.53700
C305        C  0.42801626  0.17465603  0.50177126     0.77800
O306        O  0.50179160  0.29853763  0.58203301    -0.58300
O307        O  0.50104800  0.33241836  0.54572184    -0.51400
C308        C  0.50167421  0.32485017  0.57257405     0.74400
Zr309      Zr  0.50051391  0.24954851  0.56164154     2.54700
O310        O  0.46295854  0.25099620  0.59883754    -0.78900
O311        O  0.03942812  0.24855757  0.59745917    -0.92300
Zr312      Zr  0.43913439  0.24987561  0.50086765     2.64700
O313        O  0.40270379  0.25036936  0.53924712    -0.97200
O314        O  0.40281045  0.24978026  0.96242616    -0.79300
O315        O  0.46928420  0.22159535  0.53168916    -0.82600
O316        O  0.46942909  0.27783572  0.53177779    -2.17400
O317        O  0.08184977  0.29834154  0.00168618    -0.66000
O318        O  0.04560274  0.33229297  0.50114523    -0.50600
C319        C  0.07245217  0.32466781  0.00168326     0.72700
O320        O  0.00144191  0.20070623  0.91922876    -0.58900
O321        O  0.00042089  0.16685068  0.95554514    -0.50900
C322        C  0.00117147  0.17439862  0.92869012     0.74500
O323        O  0.99897300  0.29869304  0.91924010    -0.70300
O324        O  0.49984174  0.33252140  0.95555402    -0.49000
C325        C  0.99917688  0.32498752  0.92869704     0.75900
O326        O  0.08153259  0.20040421  0.49928715    -0.65700
O327        O  0.04506000  0.16672725  0.50025842    -0.52900
C328        C  0.07194894  0.17415092  0.99958830     0.74300
Zr329      Zr  0.06126257  0.24944168  0.50026359     2.77500
O330        O  0.09717138  0.24957572  0.96140430    -0.96400
O331        O  0.09799916  0.24847223  0.53826163    -0.77200
Zr332      Zr  0.99983477  0.24968255  0.93961197     2.70100
O333        O  0.03676558  0.25078011  0.90180251    -0.78500
O334        O  0.46030164  0.24831200  0.90454316    -0.97600
Zr335      Zr  0.00006665  0.19401770  0.50059070     2.21500
Zr336      Zr  0.50038336  0.30532840  0.50063648     2.11100
O337        O  0.03114927  0.27770383  0.96943453    -2.46300
O338        O  0.03094578  0.22142431  0.96946102    -0.78300
O339        O  0.03137731  0.27763227  0.53138791    -0.70500
O340        O  0.46895117  0.22159600  0.96976498    -2.31400
O341        O  0.03132839  0.22138225  0.53145760    -2.27600
O342        O  0.46917877  0.27798395  0.96983495    -0.72200
H343        H  0.45766804  0.29044546  0.54372958     0.79800
H344        H  0.45706550  0.20901918  0.95792298     0.80900
H345        H  0.04298761  0.29025103  0.95748755     0.83100
H346        H  0.04322264  0.20874779  0.54325663     0.80700
H347        H  0.41062277  0.23642541  0.94749806     0.43700
H348        H  0.44755366  0.26473717  0.91005681     0.42700
H349        H  0.05404730  0.24177496  0.91090646     0.42400
H350        H  0.09352835  0.26776247  0.95051337     0.40300
H351        H  0.08873006  0.25838844  0.55494201     0.43400
H352        H  0.05003944  0.23023448  0.59368820     0.38200
H353        H  0.44621713  0.24081221  0.58999050     0.44300
H354        H  0.40807532  0.26699383  0.55177103     0.40700
H355        H  0.11592906  0.25289707  0.97138057     0.45700
H356        H  0.02941852  0.24524353  0.61620691     0.44400
H357        H  0.38458758  0.25660464  0.52946936     0.44500
H358        H  0.46931033  0.25444062  0.88599678     0.44900
O359        O  0.29898113  0.08117962  0.50190800    -0.74000
O360        O  0.33297560  0.04499495  0.50093624    -0.52900
C361        C  0.32532790  0.07181554  0.50169212     0.79700
O362        O  0.20106290  0.49831366  0.58188896    -0.58600
O363        O  0.16737435  0.99922011  0.54560848    -0.51600
C364        C  0.17486892  0.99857107  0.57248342     0.71800
O365        O  0.29896593  0.50097562  0.58206839    -0.73100
O366        O  0.33284510  0.50038685  0.54575138    -0.53700
C367        C  0.32532023  0.00080479  0.57256419     0.77800
O368        O  0.20085310  0.08088430  0.49905368    -0.58300
O369        O  0.16713812  0.04444109  0.49987654    -0.51400
C370        C  0.17458594  0.07131755  0.49923679     0.74400
Zr371      Zr  0.24997175  0.06075288  0.50020143     2.54700
O372        O  0.24863821  0.09788311  0.53778257    -0.78900
O373        O  0.25066502  0.09666613  0.96134714    -0.92300
Zr374      Zr  0.25005082  0.49990810  0.56151978     2.64700
O375        O  0.24956719  0.03842585  0.59772021    -0.97200
O376        O  0.25062840  0.46157953  0.59798529    -0.79300
O377        O  0.27814289  0.03085596  0.53134233    -0.82600
O378        O  0.22191955  0.03073958  0.53135707    -2.17400
O379        O  0.20128100  0.00075574  0.91904004    -0.66000
O380        O  0.16741195  0.00013754  0.95536196    -0.50600
C381        C  0.17503274  0.50078532  0.92842054     0.72700
O382        O  0.29944553  0.41851021  0.49947149    -0.58900
O383        O  0.33317417  0.45494230  0.50006169    -0.50900
C384        C  0.32571842  0.42805650  0.99956347     0.74500
O385        O  0.20148782  0.41815475  0.50178948    -0.70300
O386        O  0.16751364  0.45437383  0.50109473    -0.49000
C387        C  0.17515346  0.42753393  0.00169540     0.75900
O388        O  0.29928911  0.99897654  0.91903818    -0.65700
O389        O  0.33305507  0.49973048  0.95549127    -0.52900
C390        C  0.32556423  0.49914226  0.92862492     0.74300
Zr391      Zr  0.25028441  0.99950994  0.93940992     2.77500
O392        O  0.25066848  0.46057085  0.90365103    -0.96400
O393        O  0.25080374  0.03716165  0.90227385    -0.77200
Zr394      Zr  0.25038974  0.43874850  0.50077063     2.70100
O395        O  0.24940048  0.40137105  0.96343122    -0.78500
O396        O  0.25208577  0.40334499  0.54001317    -0.97600
Zr397      Zr  0.30585966  0.49993905  0.50054254     2.21500
Zr398      Zr  0.19451595  0.99953452  0.50045990     2.11100
O399        O  0.22217140  0.46852756  0.96955204    -2.46300
O400        O  0.27851421  0.46875937  0.96969658    -0.78300
O401        O  0.22197257  0.03045185  0.96937890    -0.70500
O402        O  0.27839301  0.46897016  0.53161289    -2.31400
O403        O  0.27826016  0.03076429  0.96931612    -2.27600
O404        O  0.22201120  0.46879576  0.53153363    -0.72200
H405        H  0.20928159  0.04262628  0.54315439     0.79800
H406        H  0.29102337  0.45714104  0.54347918     0.80900
H407        H  0.20963906  0.45656747  0.95773417     0.83100
H408        H  0.29080945  0.04264997  0.95741709     0.80700
H409        H  0.26440609  0.44692279  0.59037798     0.43700
H410        H  0.23602342  0.40901623  0.55314875     0.42700
H411        H  0.25949934  0.41026500  0.94665156     0.42400
H412        H  0.23306346  0.44897182  0.90788424     0.40300
H413        H  0.24179709  0.05422154  0.91177775     0.43400
H414        H  0.26911820  0.09318938  0.95085589     0.38200
H415        H  0.25935106  0.08920254  0.55428892     0.44300
H416        H  0.23248912  0.05050910  0.59272020     0.40700
H417        H  0.24635998  0.47035739  0.88498875     0.45700
H418        H  0.25362069  0.11543948  0.97140157     0.44400
H419        H  0.24405884  0.02859156  0.61604099     0.44500
H420        H  0.24549725  0.38495882  0.53102429     0.44900
C421        C  0.34856432  0.40683613  0.99924065    -0.17200
C422        C  0.36739857  0.38862799  0.49915612     0.06900
C423        C  0.38905441  0.36689582  0.49920131     0.08700
C424        C  0.40721812  0.34801962  0.49937318    -0.18100
C425        C  0.40672101  0.15190314  0.50219368    -0.17200
C426        C  0.38852616  0.13307177  0.50237899     0.06900
C427        C  0.36685010  0.11137734  0.50238511     0.08700
C428        C  0.34803854  0.09316026  0.50219232    -0.18100
C429        C  0.15245602  0.40617017  0.00216993    -0.17200
C430        C  0.13369254  0.38790025  0.00238383     0.06900
C431        C  0.11203155  0.36618341  0.00239656     0.08700
C432        C  0.09380055  0.34738146  0.00218963    -0.18100
C433        C  0.15172681  0.09249206  0.49889658    -0.17200
C434        C  0.13285543  0.11064340  0.49887909     0.06900
C435        C  0.11121058  0.13235710  0.49904793     0.08700
C436        C  0.09310612  0.15127310  0.99925757    -0.18100
C437        C  0.34837456  0.49882342  0.90740523    -0.17200
C438        C  0.36721071  0.49857459  0.88922369     0.06900
C439        C  0.38901315  0.99840322  0.86763385     0.08700
C440        C  0.40715121  0.99842012  0.84875584    -0.18100
C441        C  0.15227300  0.50128330  0.90713222    -0.17200
C442        C  0.13343206  0.50145217  0.88894809     0.06900
C443        C  0.11170800  0.50140711  0.86730441     0.08700
C444        C  0.09347037  0.50121840  0.84851588    -0.18100
C445        C  0.15206012  0.99815413  0.59374300    -0.17200
C446        C  0.13321074  0.99798270  0.61193420     0.06900
C447        C  0.11144219  0.49783401  0.63352072     0.08700
C448        C  0.09326035  0.49797326  0.65237455    -0.18100
C449        C  0.34810029  0.00117771  0.59384426    -0.17200
C450        C  0.36690849  0.00138561  0.61206946     0.06900
C451        C  0.38857306  0.00147313  0.63378663     0.08700
C452        C  0.40677520  0.00134703  0.65261952    -0.18100
C453        C  0.50146832  0.09300628  0.84858885    -0.17200
C454        C  0.50163488  0.11118708  0.86743757     0.06900
C455        C  0.00168078  0.13282555  0.88917653     0.08700
C456        C  0.00157141  0.15162228  0.90740999    -0.18100
C457        C  0.99868755  0.40641797  0.84858581    -0.17200
C458        C  0.99848726  0.38822145  0.86743108     0.06900
C459        C  0.99851646  0.36656001  0.88915886     0.08700
C460        C  0.99873644  0.34776091  0.90740197    -0.18100
C461        C  0.00158826  0.40648025  0.65240154    -0.17200
C462        C  0.00190459  0.38826001  0.63359829     0.06900
C463        C  0.50212069  0.36651014  0.61198134     0.08700
C464        C  0.50207889  0.34762914  0.59384099    -0.18100
C465        C  0.49836072  0.15126429  0.59349893    -0.17200
C466        C  0.49818721  0.13241867  0.61168475     0.06900
C467        C  0.49822054  0.11079719  0.63343414     0.08700
C468        C  0.49842000  0.09269022  0.65235270    -0.18100
O469        O  0.41869252  0.50126722  0.20167303    -0.74000
O470        O  0.45496391  0.50010967  0.16778047    -0.52900
C471        C  0.42811555  0.50098913  0.17535988     0.79700
O472        O  0.50128135  0.58115638  0.29950807    -0.58600
O473        O  0.50054878  0.54482367  0.33335253    -0.51600
C474        C  0.50112971  0.57169596  0.32581140     0.71800
O475        O  0.49881043  0.58100867  0.20146708    -0.73100
O476        O  0.99956491  0.54464276  0.16767903    -0.53700
C477        C  0.49894818  0.57150286  0.17518343     0.77800
O478        O  0.41875785  0.49849306  0.29959245    -0.58300
O479        O  0.45521461  0.99934829  0.33339787    -0.51400
C480        C  0.42826521  0.49867247  0.32586874     0.74400
Zr481      Zr  0.43914903  0.49936613  0.25061847     2.54700
O482        O  0.40183966  0.53681672  0.25175354    -0.78900
O483        O  0.40354523  0.96023036  0.25009497    -0.92300
Zr484      Zr  0.49993858  0.56073381  0.25053031     2.64700
O485        O  0.46140824  0.59699903  0.25100487    -0.97200
O486        O  0.03804687  0.59740938  0.25007087    -0.79300
O487        O  0.46907222  0.53048878  0.22246558    -0.82600
O488        O  0.46904996  0.53056230  0.27868764    -2.17400
O489        O  0.99907666  0.91827362  0.29955129    -0.66000
O490        O  0.49971456  0.95464338  0.33333792    -0.50600
C491        C  0.99912581  0.92777354  0.32583306     0.72700
O492        O  0.08151101  0.99831013  0.20149192    -0.58900
O493        O  0.04515214  0.49917876  0.16770400    -0.50900
C494        C  0.07199860  0.99850214  0.17521362     0.74500
O495        O  0.08161859  0.00115135  0.29946381    -0.70300
O496        O  0.04532483  0.00031905  0.33334700    -0.49000
C497        C  0.07218118  0.00097001  0.32577411     0.75900
O498        O  0.00137159  0.91823668  0.20155241    -0.65700
O499        O  0.00056936  0.95457857  0.16771975    -0.52900
C500        C  0.00119970  0.92771321  0.17525386     0.74300
Zr501      Zr  0.00049357  0.93863275  0.25053632     2.77500
O502        O  0.03945227  0.90282605  0.25050775    -0.96400
O503        O  0.46272547  0.90165109  0.24958479    -0.77200
Zr504      Zr  0.06118206  0.00002525  0.25048333     2.70100
O505        O  0.09844407  0.96253335  0.25191937    -0.78500
O506        O  0.09659840  0.53925189  0.24872409    -0.97600
Zr507      Zr  0.00007867  0.49963164  0.19488321     2.21500
Zr508      Zr  0.50024257  0.99975362  0.30620147     2.11100
O509        O  0.03135331  0.96883680  0.27864872    -2.46300
O510        O  0.03125179  0.96888572  0.22237666    -0.78300
O511        O  0.46945268  0.96861417  0.27874363    -0.70500
O512        O  0.03099075  0.53079535  0.22231928    -2.31400
O513        O  0.46921617  0.96846489  0.22246708    -2.27600
O514        O  0.03103867  0.53079391  0.27869792    -0.72200
H515        H  0.45712053  0.54237580  0.29126954     0.79800
H516        H  0.04283209  0.54264455  0.20968252     0.80900
H517        H  0.04330799  0.95703971  0.29122644     0.83100
H518        H  0.45738442  0.95654216  0.20991275     0.80700
H519        H  0.05262380  0.59005875  0.23607296     0.43700
H520        H  0.09104619  0.55229063  0.26489781     0.42700
H521        H  0.08990152  0.94604643  0.24108454     0.42400
H522        H  0.05047172  0.90656945  0.26858184     0.40300
H523        H  0.44605267  0.91071270  0.25971272     0.43400
H524        H  0.40672480  0.95007164  0.23141606     0.38200
H525        H  0.41085849  0.55368671  0.24191872     0.44300
H526        H  0.44925445  0.59196651  0.26802076     0.40700
H527        H  0.02954569  0.88405908  0.25399904     0.45700
H528        H  0.38462170  0.97017522  0.24769800     0.44400
H529        H  0.47124670  0.61528217  0.25659660     0.44500
H530        H  0.11503970  0.53021126  0.25512294     0.44900
O531        O  0.49864407  0.70042427  0.08176573    -0.74000
O532        O  0.99966861  0.66662584  0.04543607    -0.52900
C533        C  0.49887488  0.67412945  0.07228135     0.79700
O534        O  0.41892882  0.79902797  0.99953090    -0.58600
O535        O  0.45542162  0.83268339  0.00027869    -0.51600
C536        C  0.42851941  0.82527439  0.99966191     0.71800
O537        O  0.41853448  0.70107582  0.00173359    -0.73100
O538        O  0.45479632  0.66713233  0.00125040    -0.53700
C539        C  0.42794872  0.67475089  0.00171976     0.77800
O540        O  0.50181666  0.79852608  0.08207712    -0.58300
O541        O  0.50105247  0.83241809  0.04577519    -0.51400
C542        C  0.50168862  0.82483995  0.07262704     0.74400
Zr543      Zr  0.50050979  0.74957479  0.06162642     2.54700
O544        O  0.46286303  0.75087206  0.09873153    -0.78900
O545        O  0.03946069  0.74863733  0.09740147    -0.92300
Zr546      Zr  0.43914097  0.74997232  0.00085506     2.64700
O547        O  0.40277278  0.75040852  0.03929303    -0.97200
O548        O  0.40271237  0.75003169  0.46251892    -0.79300
O549        O  0.46925539  0.72165587  0.03167298    -0.82600
O550        O  0.46945028  0.77790639  0.03177678    -2.17400
O551        O  0.08190416  0.79828258  0.50175810    -0.66000
O552        O  0.04570005  0.83227854  0.00106559    -0.50600
C553        C  0.07253895  0.82461965  0.50166760     0.72700
O554        O  0.00143775  0.70072424  0.41926408    -0.58900
O555        O  0.00040761  0.66684872  0.45556007    -0.50900
C556        C  0.00116897  0.67440892  0.42870861     0.74500
O557        O  0.99900540  0.79873597  0.41922197    -0.70300
O558        O  0.49992458  0.83254568  0.45555531    -0.49000
C559        C  0.99922996  0.82502734  0.42869402     0.75900
O560        O  0.08147773  0.70035499  0.99939339    -0.65700
O561        O  0.04497039  0.66671483  0.00026079    -0.52900
C562        C  0.07186633  0.67411271  0.49964880     0.74300
Zr563      Zr  0.06126579  0.74941096  0.00027054     2.77500
O564        O  0.09711495  0.74945965  0.46135646    -0.96400
O565        O  0.09814897  0.74832078  0.03811786    -0.77200
Zr566      Zr  0.99987127  0.74972358  0.43961499     2.70100
O567        O  0.03701451  0.75076690  0.40201507    -0.78500
O568        O  0.46048285  0.74828723  0.40438815    -0.97600
Zr569      Zr  0.00000891  0.69404446  0.00058565     2.21500
Zr570      Zr  0.50044742  0.80536691  0.00064933     2.11100
O571        O  0.03119247  0.77772150  0.46944843    -2.46300
O572        O  0.03092356  0.72142352  0.46947145    -0.78300
O573        O  0.03141854  0.77763962  0.03140044    -0.70500
O574        O  0.46893375  0.72166949  0.46974937    -2.31400
O575        O  0.03129129  0.72138158  0.03144698    -2.27600
O576        O  0.46923245  0.77804591  0.46983905    -0.72200
H577        H  0.45769509  0.79052328  0.04372731     0.79800
H578        H  0.45703363  0.70911467  0.45789749     0.80900
H579        H  0.04304184  0.79026240  0.45750564     0.83100
H580        H  0.04317125  0.70873702  0.04324875     0.80700
H581        H  0.41109096  0.73778515  0.44696142     0.43700
H582        H  0.44782273  0.76485062  0.40968541     0.42700
H583        H  0.05384249  0.74065228  0.41080123     0.42400
H584        H  0.09322942  0.76745041  0.45022725     0.40300
H585        H  0.08872050  0.75760890  0.05506706     0.43400
H586        H  0.05026036  0.73046648  0.09343438     0.38200
H587        H  0.44635211  0.74019745  0.09002880     0.44300
H588        H  0.40788364  0.76729918  0.05156751     0.40700
H589        H  0.11584340  0.75315088  0.47125733     0.45700
H590        H  0.02950490  0.74502741  0.11612259     0.44400
H591        H  0.38454254  0.75619941  0.02945431     0.44500
H592        H  0.46961591  0.75417451  0.38582485     0.44900
O593        O  0.29901679  0.58116614  0.00188616    -0.74000
O594        O  0.33300919  0.54497301  0.00102168    -0.52900
C595        C  0.32536385  0.57179712  0.00172395     0.79700
O596        O  0.20114937  0.99839141  0.08198179    -0.58600
O597        O  0.16729371  0.49932733  0.04551245    -0.51600
C598        C  0.17478294  0.49857344  0.07238309     0.71800
O599        O  0.29901802  0.00082934  0.08204146    -0.73100
O600        O  0.33286755  0.00038420  0.04569446    -0.53700
C601        C  0.32527832  0.50089767  0.07261364     0.77800
O602        O  0.20086942  0.58094912  0.99907747    -0.58300
O603        O  0.16715100  0.54450558  0.99987005    -0.51400
C604        C  0.17459954  0.57138250  0.99925663     0.74400
Zr605      Zr  0.24998278  0.56077677  0.00020608     2.54700
O606        O  0.24859861  0.59774005  0.03795316    -0.78900
O607        O  0.25063626  0.59675267  0.46140717    -0.92300
Zr608      Zr  0.25009499  0.99986303  0.06153197     2.64700
O609        O  0.24931480  0.53852993  0.09764398    -0.97200
O610        O  0.25044363  0.96149224  0.09796289    -0.79300
O611        O  0.27814561  0.53087151  0.03134655    -0.82600
O612        O  0.22189623  0.53076856  0.03132083    -2.17400
O613        O  0.20134580  0.50086982  0.41897353    -0.66000
O614        O  0.16745329  0.50015026  0.45527153    -0.50600
C615        C  0.17497503  0.00071056  0.42850576     0.72700
O616        O  0.29948847  0.91850745  0.99932459    -0.58900
O617        O  0.33317971  0.95496931  0.00003845    -0.50900
C618        C  0.32575017  0.92807920  0.49946078     0.74500
O619        O  0.20156982  0.91812664  0.00174108    -0.70300
O620        O  0.16756731  0.95431685  0.00104398    -0.49000
C621        C  0.17523081  0.92748343  0.50162520     0.75900
O622        O  0.29929118  0.49886767  0.41910509    -0.65700
O623        O  0.33303251  0.99969003  0.45545088    -0.52900
C624        C  0.32556093  0.99917492  0.42857861     0.74300
Zr625      Zr  0.25030108  0.49949381  0.43944821     2.77500
O626        O  0.25056760  0.96055702  0.40364336    -0.96400
O627        O  0.25107378  0.53719685  0.40238137    -0.77200
Zr628      Zr  0.25044460  0.93874739  0.00074742     2.70100
O629        O  0.24935428  0.90129267  0.46349255    -0.78500
O630        O  0.25213050  0.90340172  0.04004259    -0.97600
Zr631      Zr  0.30584974  0.99995088  0.00050505     2.21500
Zr632      Zr  0.19449179  0.49957353  0.00041836     2.11100
O633        O  0.22221148  0.96853470  0.46955795    -2.46300
O634        O  0.27852176  0.96877523  0.46964224    -0.78300
O635        O  0.22199038  0.53047447  0.46937162    -0.70500
O636        O  0.27844538  0.96895151  0.03160116    -2.31400
O637        O  0.27827285  0.53074992  0.46935169    -2.27600
O638        O  0.22206038  0.96875319  0.03154210    -0.72200
H639        H  0.20925541  0.54265798  0.04311232     0.79800
H640        H  0.29108824  0.95711714  0.04345009     0.80900
H641        H  0.20968052  0.95656626  0.45774791     0.83100
H642        H  0.29082437  0.54262772  0.45744733     0.80700
H643        H  0.26473158  0.94713632  0.09073167     0.43700
H644        H  0.23580040  0.90883220  0.05294871     0.42700
H645        H  0.25989625  0.90994403  0.44685909     0.42400
H646        H  0.23288618  0.94905455  0.40782434     0.40300
H647        H  0.24214865  0.55428798  0.41190518     0.43400
H648        H  0.26915188  0.59339325  0.45098781     0.38200
H649        H  0.25972974  0.58919274  0.05425138     0.44300
H650        H  0.23210259  0.55044688  0.09270427     0.40700
H651        H  0.24637332  0.97035156  0.38495893     0.45700
H652        H  0.25344274  0.61552812  0.47150010     0.44400
H653        H  0.24398110  0.52867416  0.11600466     0.44500
H654        H  0.24595010  0.88491344  0.03097303     0.44900
C655        C  0.34861845  0.90688968  0.49909588    -0.17200
C656        C  0.36748487  0.88871821  0.99898842     0.06900
C657        C  0.38916968  0.86701949  0.99902764     0.08700
C658        C  0.40733539  0.84814783  0.99921591    -0.18100
C659        C  0.40663605  0.65201302  0.00214715    -0.17200
C660        C  0.38846755  0.63315554  0.00235151     0.06900
C661        C  0.36684636  0.61140468  0.00238540     0.08700
C662        C  0.34807191  0.59314778  0.00221385    -0.18100
C663        C  0.15256044  0.90609583  0.50204861    -0.17200
C664        C  0.13381965  0.88780540  0.50224618     0.06900
C665        C  0.11216319  0.86608815  0.50228913     0.08700
C666        C  0.09391550  0.84730420  0.50213026    -0.18100
C667        C  0.15172752  0.59254610  0.99893405    -0.17200
C668        C  0.13280847  0.61064836  0.99891921     0.06900
C669        C  0.11111456  0.63231234  0.99909225     0.08700
C670        C  0.09300038  0.65121744  0.49931507    -0.18100
C671        C  0.34840828  0.99884289  0.40739477    -0.17200
C672        C  0.36731440  0.99858687  0.38928555     0.06900
C673        C  0.38886716  0.49838296  0.36752742     0.08700
C674        C  0.40702911  0.49839241  0.34866932    -0.18100
C675        C  0.15220986  0.00121138  0.40722532    -0.17200
C676        C  0.13339483  0.00144184  0.38901495     0.06900
C677        C  0.11170740  0.00149998  0.36733245     0.08700
C678        C  0.09348776  0.00137015  0.34852348    -0.18100
C679        C  0.15196822  0.49811216  0.09362898    -0.17200
C680        C  0.13312890  0.49789781  0.11182628     0.06900
C681        C  0.11147807  0.99794419  0.13358876     0.08700
C682        C  0.09325001  0.99806851  0.15240157    -0.18100
C683        C  0.34805173  0.50131809  0.09390542    -0.17200
C684        C  0.36688098  0.50156119  0.11211077     0.06900
C685        C  0.38857908  0.50166731  0.13379659     0.08700
C686        C  0.40680013  0.50152290  0.15261150    -0.18100
C687        C  0.50150262  0.59299436  0.34858993    -0.17200
C688        C  0.50165545  0.61119518  0.36742746     0.06900
C689        C  0.00169555  0.63284885  0.38916383     0.08700
C690        C  0.00158115  0.65164147  0.40740862    -0.18100
C691        C  0.99861811  0.90652206  0.34864617    -0.17200
C692        C  0.99843050  0.88833620  0.36750126     0.06900
C693        C  0.99849649  0.86665443  0.38920922     0.08700
C694        C  0.99875792  0.84782323  0.40741993    -0.18100
C695        C  0.00167475  0.90644471  0.15247463    -0.17200
C696        C  0.00198759  0.88821748  0.13367986     0.06900
C697        C  0.50217380  0.86647210  0.11206061     0.08700
C698        C  0.50210451  0.84760575  0.09390634    -0.18100
C699        C  0.49836543  0.65131098  0.09351352    -0.17200
C700        C  0.49819986  0.63246769  0.11170269     0.06900
C701        C  0.49826234  0.61083928  0.13344722     0.08700
C702        C  0.49849237  0.59272183  0.15235710    -0.18100
O703        O  0.41869255  0.50126713  0.70167299    -0.74000
O704        O  0.45496396  0.50010976  0.66778047    -0.52900
C705        C  0.42811561  0.50098915  0.67535985     0.79700
O706        O  0.50128127  0.58115632  0.79950807    -0.58600
O707        O  0.50054891  0.54482362  0.83335254    -0.51600
C708        C  0.50112973  0.57169591  0.82581141     0.71800
O709        O  0.49881037  0.58100872  0.70146711    -0.73100
O710        O  0.99956496  0.54464280  0.66767906    -0.53700
C711        C  0.49894814  0.57150290  0.67518347     0.77800
O712        O  0.41875792  0.49849313  0.79959246    -0.58300
O713        O  0.45521467  0.99934830  0.83339790    -0.51400
C714        C  0.42826527  0.49867255  0.82586875     0.74400
Zr715      Zr  0.43914902  0.49936617  0.75061844     2.54700
O716        O  0.40183957  0.53681678  0.75175352    -0.78900
O717        O  0.40354516  0.96023048  0.75009496    -0.92300
Zr718      Zr  0.49993852  0.56073381  0.75053030     2.64700
O719        O  0.46140809  0.59699892  0.75100487    -0.97200
O720        O  0.03804681  0.59740950  0.75007086    -0.79300
O721        O  0.46907220  0.53048879  0.72246554    -0.82600
O722        O  0.46904989  0.53056236  0.77868772    -2.17400
O723        O  0.99907675  0.91827355  0.79955126    -0.66000
O724        O  0.49971469  0.95464330  0.83333790    -0.50600
C725        C  0.99912580  0.92777346  0.82583303     0.72700
O726        O  0.08151096  0.99831019  0.70149191    -0.58900
O727        O  0.04515215  0.49917865  0.66770406    -0.50900
C728        C  0.07199856  0.99850222  0.67521361     0.74500
O729        O  0.08161853  0.00115142  0.79946380    -0.70300
O730        O  0.04532476  0.00031911  0.83334699    -0.49000
C731        C  0.07218113  0.00097009  0.82577409     0.75900
O732        O  0.00137149  0.91823662  0.70155241    -0.65700
O733        O  0.00056926  0.95457856  0.66771978    -0.52900
C734        C  0.00119959  0.92771318  0.67525387     0.74300
Zr735      Zr  0.00049358  0.93863275  0.75053632     2.77500
O736        O  0.03945233  0.90282612  0.75050749    -0.96400
O737        O  0.46272552  0.90165108  0.74958476    -0.77200
Zr738      Zr  0.06118199  0.00002514  0.75048334     2.70100
O739        O  0.09844395  0.96253319  0.75191934    -0.78500
O740        O  0.09659848  0.53925191  0.74872415    -0.97600
Zr741      Zr  0.00007860  0.49963160  0.69488318     2.21500
Zr742      Zr  0.50024262  0.99975355  0.80620147     2.11100
O743        O  0.03135337  0.96883672  0.77864881    -2.46300
O744        O  0.03125174  0.96888568  0.72237658    -0.78300
O745        O  0.46945263  0.96861419  0.77874364    -0.70500
O746        O  0.03099061  0.53079524  0.72231931    -2.31400
O747        O  0.46921614  0.96846496  0.72246703    -2.27600
O748        O  0.03103865  0.53079389  0.77869800    -0.72200
H749        H  0.45712040  0.54237590  0.79126966     0.79800
H750        H  0.04283193  0.54264434  0.70968256     0.80900
H751        H  0.04330815  0.95703965  0.79122655     0.83100
H752        H  0.45738435  0.95654225  0.70991270     0.80700
H753        H  0.05262374  0.59005886  0.73607295     0.43700
H754        H  0.09104631  0.55229065  0.76489783     0.42700
H755        H  0.08990148  0.94604638  0.74108429     0.42400
H756        H  0.05047186  0.90656955  0.76858154     0.40300
H757        H  0.44605264  0.91071280  0.75971247     0.43400
H758        H  0.40672474  0.95007170  0.73141610     0.38200
H759        H  0.41085837  0.55368679  0.74191871     0.44300
H760        H  0.44925436  0.59196641  0.76802080     0.40700
H761        H  0.02954577  0.88405912  0.75399887     0.45700
H762        H  0.38462164  0.97017535  0.74769792     0.44400
H763        H  0.47124655  0.61528208  0.75659652     0.44500
H764        H  0.11503977  0.53021126  0.75512293     0.44900
O765        O  0.49864413  0.70042423  0.58176567    -0.74000
O766        O  0.99966856  0.66662582  0.54543606    -0.52900
C767        C  0.49887493  0.67412939  0.57228132     0.79700
O768        O  0.41892874  0.79902795  0.49953085    -0.58600
O769        O  0.45542162  0.83268329  0.50027864    -0.51600
C770        C  0.42851938  0.82527436  0.49966185     0.71800
O771        O  0.41853441  0.70107581  0.50173378    -0.73100
O772        O  0.45479629  0.66713236  0.50125041    -0.53700
C773        C  0.42794870  0.67475090  0.50171987     0.77800
O774        O  0.50181674  0.79852606  0.58207712    -0.58300
O775        O  0.50105257  0.83241803  0.54577517    -0.51400
C776        C  0.50168873  0.82483991  0.57262702     0.74400
Zr777      Zr  0.50050971  0.74957480  0.56162639     2.54700
O778        O  0.46286284  0.75087188  0.59873146    -0.78900
O779        O  0.03946078  0.74863741  0.59740145    -0.92300
Zr780      Zr  0.43914095  0.74997229  0.50085490     2.64700
O781        O  0.40277294  0.75040859  0.53929306    -0.97200
O782        O  0.40271227  0.75003180  0.96251921    -0.79300
O783        O  0.46925532  0.72165582  0.53167291    -0.82600
O784        O  0.46945038  0.77790627  0.53177653    -2.17400
O785        O  0.08190417  0.79828257  0.00175811    -0.66000
O786        O  0.04570002  0.83227856  0.50106558    -0.50600
C787        C  0.07253896  0.82461964  0.00166761     0.72700
O788        O  0.00143787  0.70072431  0.91926407    -0.58900
O789        O  0.00040754  0.66684881  0.95556006    -0.50900
C790        C  0.00116903  0.67440900  0.92870860     0.74500
O791        O  0.99900550  0.79873593  0.91922196    -0.70300
O792        O  0.49992466  0.83254571  0.95555528    -0.49000
C793        C  0.99923007  0.82502730  0.92869400     0.75900
O794        O  0.08147781  0.70035499  0.49939335    -0.65700
O795        O  0.04497044  0.66671485  0.50026074    -0.52900
C796        C  0.07186628  0.67411270  0.99964886     0.74300
Zr797      Zr  0.06126575  0.74941094  0.50027053     2.77500
O798        O  0.09711513  0.74945948  0.96135656    -0.96400
O799        O  0.09814885  0.74832087  0.53811792    -0.77200
Zr800      Zr  0.99987130  0.74972360  0.93961500     2.70100
O801        O  0.03701452  0.75076676  0.90201497    -0.78500
O802        O  0.46048280  0.74828729  0.90438833    -0.97600
Zr803      Zr  0.00000890  0.69404442  0.50058560     2.21500
Zr804      Zr  0.50044748  0.80536684  0.50064930     2.11100
O805        O  0.03119248  0.77772152  0.96944842    -2.46300
O806        O  0.03092361  0.72142353  0.96947148    -0.78300
O807        O  0.03141851  0.77763967  0.53140039    -0.70500
O808        O  0.46893381  0.72166967  0.96974956    -2.31400
O809        O  0.03129128  0.72138155  0.53144696    -2.27600
O810        O  0.46923234  0.77804597  0.96983910    -0.72200
H811        H  0.45769532  0.79052320  0.54372692     0.79800
H812        H  0.45703371  0.70911494  0.95789781     0.80900
H813        H  0.04304178  0.79026248  0.95750561     0.83100
H814        H  0.04317131  0.70873706  0.54324873     0.80700
H815        H  0.41109082  0.73778534  0.94696161     0.43700
H816        H  0.44782274  0.76485078  0.90968551     0.42700
H817        H  0.05384262  0.74065237  0.91080116     0.42400
H818        H  0.09322961  0.76745017  0.95022730     0.40300
H819        H  0.08872046  0.75760930  0.55506698     0.43400
H820        H  0.05026046  0.73046656  0.59343436     0.38200
H821        H  0.44635194  0.74019735  0.59002867     0.44300
H822        H  0.40788381  0.76729932  0.55156749     0.40700
H823        H  0.11584362  0.75315073  0.97125742     0.45700
H824        H  0.02950501  0.74502749  0.61612257     0.44400
H825        H  0.38454264  0.75619942  0.52945441     0.44500
H826        H  0.46961591  0.75417448  0.88582504     0.44900
O827        O  0.29901683  0.58116618  0.50188616    -0.74000
O828        O  0.33300917  0.54497298  0.50102166    -0.52900
C829        C  0.32536387  0.57179710  0.50172394     0.79700
O830        O  0.20114940  0.99839149  0.58198176    -0.58600
O831        O  0.16729376  0.49932724  0.54551246    -0.51600
C832        C  0.17478296  0.49857341  0.57238311     0.71800
O833        O  0.29901802  0.00082919  0.58204145    -0.73100
O834        O  0.33286757  0.00038425  0.54569448    -0.53700
C835        C  0.32527830  0.50089759  0.57261362     0.77800
O836        O  0.20086945  0.58094907  0.49907730    -0.58300
O837        O  0.16715097  0.54450557  0.49987008    -0.51400
C838        C  0.17459954  0.57138248  0.49925658     0.74400
Zr839      Zr  0.24998282  0.56077672  0.50020611     2.54700
O840        O  0.24859850  0.59774008  0.53795308    -0.78900
O841        O  0.25063609  0.59675283  0.96140726    -0.92300
Zr842      Zr  0.25009502  0.99986304  0.56153195     2.64700
O843        O  0.24931469  0.53852995  0.59764405    -0.97200
O844        O  0.25044373  0.96149231  0.59796290    -0.79300
O845        O  0.27814567  0.53087144  0.53134656    -0.82600
O846        O  0.22189609  0.53076865  0.53132087    -2.17400
O847        O  0.20134577  0.50086984  0.91897357    -0.66000
O848        O  0.16745331  0.50015030  0.95527161    -0.50600
C849        C  0.17497500  0.00071059  0.92850577     0.72700
O850        O  0.29948843  0.91850738  0.49932460    -0.58900
O851        O  0.33317964  0.95496928  0.50003844    -0.50900
C852        C  0.32575021  0.92807924  0.99946078     0.74500
O853        O  0.20156982  0.91812666  0.50174107    -0.70300
O854        O  0.16756730  0.95431684  0.50104397    -0.49000
C855        C  0.17523080  0.92748343  0.00162521     0.75900
O856        O  0.29929110  0.49886774  0.91910507    -0.65700
O857        O  0.33303241  0.99968993  0.95545087    -0.52900
C858        C  0.32556083  0.99917494  0.92857860     0.74300
Zr859      Zr  0.25030104  0.49949382  0.93944823     2.77500
O860        O  0.25056744  0.96055705  0.90364339    -0.96400
O861        O  0.25107366  0.53719691  0.90238141    -0.77200
Zr862      Zr  0.25044455  0.93874742  0.50074742     2.70100
O863        O  0.24935418  0.90129271  0.96349252    -0.78500
O864        O  0.25213046  0.90340179  0.54004260    -0.97600
Zr865      Zr  0.30584977  0.99995088  0.50050505     2.21500
Zr866      Zr  0.19449177  0.49957349  0.50041833     2.11100
O867        O  0.22221166  0.96853481  0.96955807    -2.46300
O868        O  0.27852177  0.96877525  0.96964221    -0.78300
O869        O  0.22199034  0.53047454  0.96937159    -0.70500
O870        O  0.27844542  0.96895145  0.53160118    -2.31400
O871        O  0.27827290  0.53075003  0.96935162    -2.27600
O872        O  0.22206029  0.96875317  0.53154219    -0.72200
H873        H  0.20925522  0.54265814  0.54311235     0.79800
H874        H  0.29108825  0.95711695  0.54345014     0.80900
H875        H  0.20968079  0.95656647  0.95774808     0.83100
H876        H  0.29082446  0.54262787  0.95744723     0.80700
H877        H  0.26473168  0.94713639  0.59073167     0.43700
H878        H  0.23580028  0.90883221  0.55294869     0.42700
H879        H  0.25989637  0.90994397  0.94685915     0.42400
H880        H  0.23288604  0.94905455  0.90782437     0.40300
H881        H  0.24214871  0.55428809  0.91190528     0.43400
H882        H  0.26915164  0.59339329  0.95098784     0.38200
H883        H  0.25972954  0.58919281  0.55425140     0.44300
H884        H  0.23210249  0.55044686  0.59270435     0.40700
H885        H  0.24637317  0.97035159  0.88495898     0.45700
H886        H  0.25344273  0.61552829  0.97150019     0.44400
H887        H  0.24398103  0.52867418  0.61600473     0.44500
H888        H  0.24595009  0.88491348  0.53097304     0.44900
C889        C  0.34861843  0.90688964  0.99909587    -0.17200
C890        C  0.36748491  0.88871825  0.49898839     0.06900
C891        C  0.38916967  0.86701950  0.49902752     0.08700
C892        C  0.40733538  0.84814783  0.49921583    -0.18100
C893        C  0.40663607  0.65201296  0.50214720    -0.17200
C894        C  0.38846759  0.63315546  0.50235150     0.06900
C895        C  0.36684634  0.61140467  0.50238539     0.08700
C896        C  0.34807193  0.59314775  0.50221384    -0.18100
C897        C  0.15256040  0.90609588  0.00204862    -0.17200
C898        C  0.13381958  0.88780546  0.00224619     0.06900
C899        C  0.11216315  0.86608822  0.00228914     0.08700
C900        C  0.09391553  0.84730419  0.00213027    -0.18100
C901        C  0.15172753  0.59254610  0.49893405    -0.17200
C902        C  0.13280848  0.61064835  0.49891922     0.06900
C903        C  0.11111458  0.63231234  0.49909226     0.08700
C904        C  0.09300034  0.65121746  0.99931510    -0.18100
C905        C  0.34840818  0.99884297  0.90739475    -0.17200
C906        C  0.36731431  0.99858696  0.88928553     0.06900
C907        C  0.38886716  0.49838299  0.86752744     0.08700
C908        C  0.40702914  0.49839250  0.84866932    -0.18100
C909        C  0.15220979  0.00121145  0.90722537    -0.17200
C910        C  0.13339475  0.00144192  0.88901498     0.06900
C911        C  0.11170732  0.00150005  0.86733247     0.08700
C912        C  0.09348770  0.00137024  0.84852347    -0.18100
C913        C  0.15196823  0.49811224  0.59362899    -0.17200
C914        C  0.13312892  0.49789785  0.61182632     0.06900
C915        C  0.11147810  0.99794427  0.63358879     0.08700
C916        C  0.09325000  0.99806859  0.65240156    -0.18100
C917        C  0.34805168  0.50131803  0.59390545    -0.17200
C918        C  0.36688095  0.50156122  0.61211080     0.06900
C919        C  0.38857912  0.50166739  0.63379656     0.08700
C920        C  0.40680019  0.50152298  0.65261146    -0.18100
C921        C  0.50150255  0.59299438  0.84858992    -0.17200
C922        C  0.50165533  0.61119524  0.86742743     0.06900
C923        C  0.00169562  0.63284892  0.88916381     0.08700
C924        C  0.00158127  0.65164154  0.90740861    -0.18100
C925        C  0.99861818  0.90652200  0.84864615    -0.17200
C926        C  0.99843061  0.88833619  0.86750129     0.06900
C927        C  0.99849661  0.86665442  0.88920925     0.08700
C928        C  0.99875804  0.84782317  0.90741989    -0.18100
C929        C  0.00167469  0.90644472  0.65247459    -0.17200
C930        C  0.00198760  0.88821748  0.63367982     0.06900
C931        C  0.50217386  0.86647203  0.61206063     0.08700
C932        C  0.50210463  0.84760571  0.59390634    -0.18100
C933        C  0.49836546  0.65131096  0.59351354    -0.17200
C934        C  0.49819984  0.63246768  0.61170272     0.06900
C935        C  0.49826236  0.61083926  0.63344722     0.08700
C936        C  0.49849235  0.59272187  0.65235715    -0.18100
O937        O  0.91866735  0.00117741  0.20168610    -0.74000
O938        O  0.95493881  0.00001358  0.16779247    -0.52900
C939        C  0.92808939  0.00087025  0.17537119     0.79700
O940        O  0.00120697  0.08118297  0.29951153    -0.58600
O941        O  0.00052491  0.04485266  0.33335323    -0.51600
C942        C  0.00108124  0.07172080  0.32581206     0.71800
O943        O  0.99864987  0.08100224  0.20146580    -0.73100
O944        O  0.49955707  0.04462311  0.16769436    -0.53700
C945        C  0.99886235  0.07148394  0.17518757     0.77800
O946        O  0.91880233  0.99843171  0.29965586    -0.58300
O947        O  0.95513595  0.49922769  0.33337532    -0.51400
C948        C  0.92834274  0.99870222  0.32592165     0.74400
Zr949      Zr  0.93912122  0.99936968  0.25064617     2.54700
O950        O  0.90190584  0.03691228  0.25183354    -0.78900
O951        O  0.90366006  0.46014384  0.25000831    -0.92300
Zr952      Zr  0.99985928  0.06076410  0.25053617     2.64700
O953        O  0.96137239  0.09708330  0.25113921    -0.97200
O954        O  0.53790854  0.09749276  0.25008796    -0.79300
O955        O  0.96901351  0.03049531  0.22246651    -0.82600
O956        O  0.96900603  0.03058674  0.27870342    -2.17400
O957        O  0.49921053  0.41824100  0.29950803    -0.66000
O958        O  0.99967033  0.45456758  0.33334169    -0.50600
C959        C  0.49918234  0.42770471  0.32580271     0.72700
O960        O  0.58154171  0.49826410  0.20147454    -0.58900
O961        O  0.54512259  0.99921040  0.16772138    -0.50900
C962        C  0.57202570  0.49844819  0.17519604     0.74500
O963        O  0.58160389  0.50107258  0.29946244    -0.70300
O964        O  0.54530925  0.50013341  0.33335004    -0.49000
C965        C  0.57216382  0.50082276  0.32577216     0.75900
O966        O  0.50135397  0.41826669  0.20148923    -0.65700
O967        O  0.50050406  0.45461031  0.16765797    -0.52900
C968        C  0.50114175  0.42774473  0.17518849     0.74300
Zr969      Zr  0.50050865  0.43863402  0.25049933     2.77500
O970        O  0.53940865  0.40276906  0.25051984    -0.96400
O971        O  0.96268842  0.40171262  0.24967509    -0.77200
Zr972      Zr  0.56120464  0.50000274  0.25046815     2.70100
O973        O  0.59852537  0.46256926  0.25182506    -0.78500
O974        O  0.59666464  0.03919057  0.24871418    -0.97600
Zr975      Zr  0.50004614  0.99962416  0.19491173     2.21500
Zr976      Zr  0.00022052  0.49969353  0.30621915     2.11100
O977        O  0.53135473  0.46882303  0.27862659    -2.46300
O978        O  0.53128090  0.46887626  0.22234228    -0.78300
O979        O  0.96944367  0.46857867  0.27872174    -0.70500
O980        O  0.53093330  0.03081302  0.22235207    -2.31400
O981        O  0.96924105  0.46847412  0.22242748    -2.27600
O982        O  0.53102938  0.03086433  0.27867575    -0.72200
H983        H  0.95707433  0.04239378  0.29129059     0.79800
H984        H  0.54276561  0.04266877  0.20971290     0.80900
H985        H  0.54331031  0.45701031  0.29118933     0.83100
H986        H  0.95740594  0.45655978  0.20986794     0.80700
H987        H  0.55302764  0.08961258  0.23698288     0.43700
H988        H  0.59071079  0.05261049  0.26442655     0.42700
H989        H  0.58980034  0.44590567  0.24141367     0.42400
H990        H  0.55027291  0.40634177  0.26872270     0.40300
H991        H  0.94615544  0.41070123  0.26009352     0.43400
H992        H  0.90677065  0.45009943  0.23125611     0.38200
H993        H  0.91081823  0.05363885  0.24166165     0.44300
H994        H  0.94924019  0.09204402  0.26816894     0.40700
H995        H  0.52943820  0.38399221  0.25376756     0.45700
H996        H  0.88470181  0.47005764  0.24775945     0.44400
H997        H  0.97124393  0.11534625  0.25674106     0.44500
H998        H  0.61492451  0.03029769  0.25580232     0.44900
O999        O  0.99861299  0.20038233  0.08175970    -0.74000
O1000       O  0.49970127  0.16658714  0.04542820    -0.52900
C1001       C  0.99887333  0.17408753  0.07227256     0.79700
O1002       O  0.91886312  0.29890844  0.99961209    -0.58600
O1003       O  0.95532306  0.33259801  0.00036539    -0.51600
C1004       C  0.92842646  0.32516437  0.99977040     0.71800
O1005       O  0.91857447  0.20096949  0.00186179    -0.73100
O1006       O  0.95487149  0.16706591  0.00122015    -0.53700
C1007       C  0.92801626  0.17465611  0.00177127     0.77800
O1008       O  0.00179161  0.29853763  0.08203306    -0.58300
O1009       O  0.00104821  0.33241830  0.04572184    -0.51400
C1010       C  0.00167431  0.32485015  0.07257406     0.74400
Zr1011     Zr  0.00051390  0.24954853  0.06164157     2.54700
O1012       O  0.96295852  0.25099632  0.09883753    -0.78900
O1013       O  0.53942795  0.24855775  0.09745926    -0.92300
Zr1014     Zr  0.93913442  0.24987566  0.00086762     2.64700
O1015       O  0.90270373  0.25036925  0.03924694    -0.97200
O1016       O  0.90281048  0.24978015  0.46242613    -0.79300
O1017       O  0.96928418  0.22159538  0.03168917    -0.82600
O1018       O  0.96942911  0.27783573  0.03177778    -2.17400
O1019       O  0.58184977  0.29834154  0.50168614    -0.66000
O1020       O  0.54560275  0.33229299  0.00114506    -0.50600
C1021       C  0.57245217  0.32466779  0.50168330     0.72700
O1022       O  0.50144193  0.20070631  0.41922878    -0.58900
O1023       O  0.50042091  0.16685072  0.45554511    -0.50900
C1024       C  0.50117148  0.17439872  0.42869010     0.74500
O1025       O  0.49897298  0.29869306  0.41924006    -0.70300
O1026       O  0.99984175  0.33252137  0.45555402    -0.49000
C1027       C  0.49917686  0.32498752  0.42869703     0.75900
O1028       O  0.58153261  0.20040424  0.99928714    -0.65700
O1029       O  0.54505999  0.16672732  0.00025843    -0.52900
C1030       C  0.57194890  0.17415086  0.49958831     0.74300
Zr1031     Zr  0.56126259  0.24944165  0.00026361     2.77500
O1032       O  0.59717143  0.24957565  0.46140431    -0.96400
O1033       O  0.59799917  0.24847215  0.03826163    -0.77200
Zr1034     Zr  0.49983477  0.24968263  0.43961198     2.70100
O1035       O  0.53676571  0.25077998  0.40180258    -0.78500
O1036       O  0.96030161  0.24831213  0.40454311    -0.97600
Zr1037     Zr  0.50006666  0.19401772  0.00059071     2.21500
Zr1038     Zr  0.00038339  0.30532838  0.00063646     2.11100
O1039       O  0.53114934  0.27770399  0.46943447    -2.46300
O1040       O  0.53094568  0.22142441  0.46946106    -0.78300
O1041       O  0.53137734  0.27763224  0.03138791    -0.70500
O1042       O  0.96895106  0.22159595  0.46976492    -2.31400
O1043       O  0.53132827  0.22138231  0.03145757    -2.27600
O1044       O  0.96917873  0.27798396  0.46983502    -0.72200
H1045       H  0.95766806  0.29044544  0.04372959     0.79800
H1046       H  0.95706528  0.20901917  0.45792288     0.80900
H1047       H  0.54298772  0.29025124  0.45748748     0.83100
H1048       H  0.54322240  0.20874783  0.04325658     0.80700
H1049       H  0.91062286  0.23642544  0.44749796     0.43700
H1050       H  0.94755370  0.26473736  0.41005670     0.42700
H1051       H  0.55404740  0.24177489  0.41090656     0.42400
H1052       H  0.59352838  0.26776235  0.45051335     0.40300
H1053       H  0.58873008  0.25838836  0.05494202     0.43400
H1054       H  0.55003939  0.23023476  0.09368815     0.38200
H1055       H  0.94621721  0.24081211  0.08999059     0.44300
H1056       H  0.90807535  0.26699359  0.05177098     0.40700
H1057       H  0.61592911  0.25289700  0.47138057     0.45700
H1058       H  0.52941831  0.24524349  0.11620696     0.44400
H1059       H  0.88458757  0.25660475  0.02946917     0.44500
H1060       H  0.96931037  0.25444068  0.38599674     0.44900
O1061       O  0.79898114  0.08117955  0.00190800    -0.74000
O1062       O  0.83297563  0.04499490  0.00093625    -0.52900
C1063       C  0.82532792  0.07181548  0.00169213     0.79700
O1064       O  0.70106291  0.49831373  0.08188898    -0.58600
O1065       O  0.66737437  0.99922004  0.04560849    -0.51600
C1066       C  0.67486894  0.99857099  0.07248343     0.71800
O1067       O  0.79896594  0.50097570  0.08206839    -0.73100
O1068       O  0.83284511  0.50038695  0.04575138    -0.53700
C1069       C  0.82532023  0.00080488  0.07256418     0.77800
O1070       O  0.70085306  0.08088422  0.99905368    -0.58300
O1071       O  0.66713809  0.04444101  0.99987653    -0.51400
C1072       C  0.67458592  0.07131746  0.99923678     0.74400
Zr1073     Zr  0.74997175  0.06075286  0.00020141     2.54700
O1074       O  0.74863822  0.09788305  0.03778258    -0.78900
O1075       O  0.75066498  0.09666610  0.46134714    -0.92300
Zr1076     Zr  0.75005084  0.49990806  0.06151979     2.64700
O1077       O  0.74956725  0.03842576  0.09772026    -0.97200
O1078       O  0.75062841  0.46157947  0.09798529    -0.79300
O1079       O  0.77814292  0.03085597  0.03134235    -0.82600
O1080       O  0.72191949  0.03073965  0.03135715    -2.17400
O1081       O  0.70128102  0.00075564  0.41904005    -0.66000
O1082       O  0.66741196  0.00013764  0.45536197    -0.50600
C1083       C  0.67503277  0.50078531  0.42842046     0.72700
O1084       O  0.79944551  0.41851011  0.99947147    -0.58900
O1085       O  0.83317404  0.45494232  0.00006169    -0.50900
C1086       C  0.82571842  0.42805651  0.49956347     0.74500
O1087       O  0.70148779  0.41815477  0.00178947    -0.70300
O1088       O  0.66751362  0.45437388  0.00109474    -0.49000
C1089       C  0.67515347  0.42753392  0.50169539     0.75900
O1090       O  0.79928913  0.99897644  0.41903819    -0.65700
O1091       O  0.83305509  0.49973040  0.45549127    -0.52900
C1092       C  0.82556424  0.49914218  0.42862493     0.74300
Zr1093     Zr  0.75028442  0.99950989  0.43940992     2.77500
O1094       O  0.75066824  0.46057077  0.40365112    -0.96400
O1095       O  0.75080374  0.03716175  0.40227393    -0.77200
Zr1096     Zr  0.75038974  0.43874847  0.00077056     2.70100
O1097       O  0.74940048  0.40137103  0.46343134    -0.78500
O1098       O  0.75208552  0.40334491  0.04001314    -0.97600
Zr1099     Zr  0.80585962  0.49993912  0.00054256     2.21500
Zr1100     Zr  0.69451597  0.99953453  0.00045991     2.11100
O1101       O  0.72217144  0.46852752  0.46955205    -2.46300
O1102       O  0.77851420  0.46875933  0.46969657    -0.78300
O1103       O  0.72197258  0.03045181  0.46937889    -0.70500
O1104       O  0.77839302  0.46897012  0.03161286    -2.31400
O1105       O  0.77826013  0.03076426  0.46931618    -2.27600
O1106       O  0.72201124  0.46879578  0.03153356    -0.72200
H1107       H  0.70928151  0.04262644  0.04315449     0.79800
H1108       H  0.79102340  0.45714098  0.04347914     0.80900
H1109       H  0.70963913  0.45656739  0.45773417     0.83100
H1110       H  0.79080944  0.04264992  0.45741714     0.80700
H1111       H  0.76440649  0.44692297  0.09037823     0.43700
H1112       H  0.73602327  0.40901626  0.05314874     0.42700
H1113       H  0.75949927  0.41026498  0.44665162     0.42400
H1114       H  0.73306313  0.44897185  0.40788430     0.40300
H1115       H  0.74179686  0.05422156  0.41177776     0.43400
H1116       H  0.76911814  0.09318926  0.45085588     0.38200
H1117       H  0.75935108  0.08920246  0.05428892     0.44300
H1118       H  0.73248922  0.05050906  0.09272021     0.40700
H1119       H  0.74635986  0.47035731  0.38498884     0.45700
H1120       H  0.75362077  0.11543946  0.47140155     0.44400
H1121       H  0.74405880  0.02859147  0.11604103     0.44500
H1122       H  0.74549694  0.38495877  0.03102430     0.44900
C1123       C  0.84856425  0.40683607  0.49924065    -0.17200
C1124       C  0.86739860  0.38862806  0.99915611     0.06900
C1125       C  0.88905444  0.36689589  0.99920130     0.08700
C1126       C  0.90721815  0.34801970  0.99937317    -0.18100
C1127       C  0.90672100  0.15190318  0.00219369    -0.17200
C1128       C  0.88852615  0.13307180  0.00237900     0.06900
C1129       C  0.86685001  0.11137741  0.00238512     0.08700
C1130       C  0.84803853  0.09316025  0.00219233    -0.18100
C1131       C  0.65245602  0.40617016  0.50216997    -0.17200
C1132       C  0.63369253  0.38790025  0.50238395     0.06900
C1133       C  0.61203159  0.36618335  0.50239660     0.08700
C1134       C  0.59380056  0.34738144  0.50218963    -0.18100
C1135       C  0.65172676  0.09249199  0.99889657    -0.17200
C1136       C  0.63285540  0.11064335  0.99887913     0.06900
C1137       C  0.61121060  0.13235713  0.99904805     0.08700
C1138       C  0.59310605  0.15127303  0.49925753    -0.18100
C1139       C  0.84837457  0.49882339  0.40740524    -0.17200
C1140       C  0.86721072  0.49857465  0.38922370     0.06900
C1141       C  0.88901317  0.99840320  0.36763386     0.08700
C1142       C  0.90715123  0.99842020  0.34875585    -0.18100
C1143       C  0.65227305  0.50128331  0.40713211    -0.17200
C1144       C  0.63343203  0.50145222  0.38894805     0.06900
C1145       C  0.61170792  0.50140713  0.36730445     0.08700
C1146       C  0.59347032  0.50121849  0.34851588    -0.18100
C1147       C  0.65206014  0.99815405  0.09374301    -0.17200
C1148       C  0.63321076  0.99798262  0.11193421     0.06900
C1149       C  0.61144212  0.49783412  0.13352065     0.08700
C1150       C  0.59326036  0.49797337  0.15237453    -0.18100
C1151       C  0.84810029  0.00117780  0.09384424    -0.17200
C1152       C  0.86690845  0.00138563  0.11206946     0.06900
C1153       C  0.88857294  0.00147318  0.13378668     0.08700
C1154       C  0.90677508  0.00134700  0.15261958    -0.18100
C1155       C  0.00146830  0.09300641  0.34858879    -0.17200
C1156       C  0.00163491  0.11118721  0.36743751     0.06900
C1157       C  0.50168080  0.13282571  0.38917644     0.08700
C1158       C  0.50157143  0.15162239  0.40740995    -0.18100
C1159       C  0.49868753  0.40641806  0.34858585    -0.17200
C1160       C  0.49848724  0.38822146  0.36743105     0.06900
C1161       C  0.49851644  0.36656000  0.38915884     0.08700
C1162       C  0.49873642  0.34776092  0.40740199    -0.18100
C1163       C  0.50158809  0.40648023  0.15240157    -0.17200
C1164       C  0.50190443  0.38826003  0.13359827     0.06900
C1165       C  0.00212067  0.36651015  0.11198134     0.08700
C1166       C  0.00207892  0.34762914  0.09384098    -0.18100
C1167       C  0.99836069  0.15126428  0.09349895    -0.17200
C1168       C  0.99818710  0.13241868  0.11168480     0.06900
C1169       C  0.99822051  0.11079716  0.13343415     0.08700
C1170       C  0.99842002  0.09269015  0.15235268    -0.18100
O1171       O  0.91866730  0.00117747  0.70168608    -0.74000
O1172       O  0.95493880  0.00001366  0.66779248    -0.52900
C1173       C  0.92808939  0.00087033  0.67537118     0.79700
O1174       O  0.00120687  0.08118293  0.79951158    -0.58600
O1175       O  0.00052481  0.04485256  0.83335323    -0.51600
C1176       C  0.00108114  0.07172072  0.82581210     0.71800
O1177       O  0.99864999  0.08100228  0.70146583    -0.73100
O1178       O  0.49955716  0.04462318  0.66769436    -0.53700
C1179       C  0.99886241  0.07148401  0.67518759     0.77800
O1180       O  0.91880224  0.99843177  0.79965585    -0.58300
O1181       O  0.95513591  0.49922757  0.83337527    -0.51400
C1182       C  0.92834269  0.99870226  0.82592163     0.74400
Zr1183     Zr  0.93912114  0.99936967  0.75064615     2.54700
O1184       O  0.90190578  0.03691231  0.75183352    -0.78900
O1185       O  0.90365994  0.46014399  0.75000837    -0.92300
Zr1186     Zr  0.99985921  0.06076406  0.75053622     2.64700
O1187       O  0.96137254  0.09708344  0.75113915    -0.97200
O1188       O  0.53790848  0.09749270  0.75008796    -0.79300
O1189       O  0.96901345  0.03049530  0.72246651    -0.82600
O1190       O  0.96900587  0.03058677  0.77870349    -2.17400
O1191       O  0.49921061  0.41824090  0.79950796    -0.66000
O1192       O  0.99967026  0.45456746  0.83334166    -0.50600
C1193       C  0.49918233  0.42770460  0.82580266     0.72700
O1194       O  0.58154164  0.49826415  0.70147452    -0.58900
O1195       O  0.54512263  0.99921048  0.66772139    -0.50900
C1196       C  0.57202566  0.49844810  0.67519601     0.74500
O1197       O  0.58160388  0.50107243  0.79946245    -0.70300
O1198       O  0.54530926  0.50013344  0.83335008    -0.49000
C1199       C  0.57216382  0.50082268  0.82577217     0.75900
O1200       O  0.50135407  0.41826672  0.70148916    -0.65700
O1201       O  0.50050394  0.45461034  0.66765792    -0.52900
C1202       C  0.50114174  0.42774476  0.67518843     0.74300
Zr1203     Zr  0.50050872  0.43863402  0.75049926     2.77500
O1204       O  0.53940878  0.40276912  0.75051983    -0.96400
O1205       O  0.96268831  0.40171264  0.74967485    -0.77200
Zr1206     Zr  0.56120469  0.50000280  0.75046816     2.70100
O1207       O  0.59852534  0.46256929  0.75182506    -0.78500
O1208       O  0.59666477  0.03919041  0.74871417    -0.97600
Zr1209     Zr  0.50004618  0.99962420  0.69491174     2.21500
Zr1210     Zr  0.00022052  0.49969346  0.80621918     2.11100
O1211       O  0.53135485  0.46882298  0.77862658    -2.46300
O1212       O  0.53128100  0.46887629  0.72234228    -0.78300
O1213       O  0.96944372  0.46857867  0.77872168    -0.70500
O1214       O  0.53093332  0.03081287  0.72235223    -2.31400
O1215       O  0.96924089  0.46847401  0.72242737    -2.27600
O1216       O  0.53102947  0.03086421  0.77867574    -0.72200
H1217       H  0.95707415  0.04239389  0.79129066     0.79800
H1218       H  0.54276565  0.04266858  0.70971316     0.80900
H1219       H  0.54331048  0.45701024  0.79118937     0.83100
H1220       H  0.95740570  0.45655962  0.70986783     0.80700
H1221       H  0.55302746  0.08961262  0.73698268     0.43700
H1222       H  0.59071089  0.05261036  0.76442649     0.42700
H1223       H  0.58980034  0.44590583  0.74141343     0.42400
H1224       H  0.55027304  0.40634195  0.76872267     0.40300
H1225       H  0.94615541  0.41070124  0.76009345     0.43400
H1226       H  0.90677057  0.45009946  0.73125624     0.38200
H1227       H  0.91081816  0.05363889  0.74166164     0.44300
H1228       H  0.94924033  0.09204418  0.76816887     0.40700
H1229       H  0.52943836  0.38399227  0.75376767     0.45700
H1230       H  0.88470169  0.47005778  0.74775940     0.44400
H1231       H  0.97124415  0.11534637  0.75674103     0.44500
H1232       H  0.61492465  0.03029756  0.75580233     0.44900
O1233       O  0.99861309  0.20038232  0.58175963    -0.74000
O1234       O  0.49970134  0.16658710  0.54542818    -0.52900
C1235       C  0.99887334  0.17408753  0.57227252     0.79700
O1236       O  0.91886311  0.29890839  0.49961210    -0.58600
O1237       O  0.95532301  0.33259801  0.50036538    -0.51600
C1238       C  0.92842643  0.32516433  0.49977040     0.71800
O1239       O  0.91857457  0.20096941  0.50186178    -0.73100
O1240       O  0.95487156  0.16706580  0.50122014    -0.53700
C1241       C  0.92801633  0.17465601  0.50177126     0.77800
O1242       O  0.00179150  0.29853763  0.58203302    -0.58300
O1243       O  0.00104810  0.33241836  0.54572184    -0.51400
C1244       C  0.00167420  0.32485017  0.57257405     0.74400
Zr1245     Zr  0.00051386  0.24954852  0.56164155     2.54700
O1246       O  0.96295837  0.25099614  0.59883749    -0.78900
O1247       O  0.53942810  0.24855756  0.59745924    -0.92300
Zr1248     Zr  0.93913445  0.24987561  0.50086763     2.64700
O1249       O  0.90270389  0.25036931  0.53924701    -0.97200
O1250       O  0.90281039  0.24978024  0.96242616    -0.79300
O1251       O  0.96928418  0.22159532  0.53168915    -0.82600
O1252       O  0.96942900  0.27783579  0.53177785    -2.17400
O1253       O  0.58184973  0.29834153  0.00168618    -0.66000
O1254       O  0.54560277  0.33229298  0.50114523    -0.50600
C1255       C  0.57245214  0.32466781  0.00168326     0.72700
O1256       O  0.50144203  0.20070623  0.91922876    -0.58900
O1257       O  0.50042101  0.16685068  0.95554514    -0.50900
C1258       C  0.50117155  0.17439863  0.92869012     0.74500
O1259       O  0.49897311  0.29869305  0.91924009    -0.70300
O1260       O  0.99984183  0.33252140  0.95555401    -0.49000
C1261       C  0.49917688  0.32498753  0.92869704     0.75900
O1262       O  0.58153257  0.20040420  0.49928715    -0.65700
O1263       O  0.54505996  0.16672725  0.50025842    -0.52900
C1264       C  0.57194894  0.17415092  0.99958830     0.74300
Zr1265     Zr  0.56126261  0.24944168  0.50026358     2.77500
O1266       O  0.59717127  0.24957578  0.96140424    -0.96400
O1267       O  0.59799911  0.24847223  0.53826167    -0.77200
Zr1268     Zr  0.49983480  0.24968258  0.93961197     2.70100
O1269       O  0.53676556  0.25078010  0.90180248    -0.78500
O1270       O  0.96030170  0.24831200  0.90454310    -0.97600
Zr1271     Zr  0.50006662  0.19401770  0.50059070     2.21500
Zr1272     Zr  0.00038333  0.30532840  0.50063649     2.11100
O1273       O  0.53114935  0.27770391  0.96943448    -2.46300
O1274       O  0.53094577  0.22142432  0.96946102    -0.78300
O1275       O  0.53137734  0.27763226  0.53138789    -0.70500
O1276       O  0.96895105  0.22159595  0.96976492    -2.31400
O1277       O  0.53132838  0.22138224  0.53145757    -2.27600
O1278       O  0.96917880  0.27798395  0.96983499    -0.72200
H1279       H  0.95766785  0.29044554  0.54372965     0.79800
H1280       H  0.95706531  0.20901910  0.95792290     0.80900
H1281       H  0.54298778  0.29025113  0.95748749     0.83100
H1282       H  0.54322259  0.20874777  0.54325662     0.80700
H1283       H  0.91062283  0.23642560  0.94749794     0.43700
H1284       H  0.94755381  0.26473726  0.91005664     0.42700
H1285       H  0.55404726  0.24177489  0.91090639     0.42400
H1286       H  0.59352827  0.26776254  0.95051333     0.40300
H1287       H  0.58872995  0.25838845  0.55494201     0.43400
H1288       H  0.55003949  0.23023454  0.59368818     0.38200
H1289       H  0.94621695  0.24081227  0.58999041     0.44300
H1290       H  0.90807546  0.26699377  0.55177096     0.40700
H1291       H  0.61592892  0.25289704  0.97138052     0.45700
H1292       H  0.52941847  0.24524342  0.61620692     0.44400
H1293       H  0.88458772  0.25660470  0.52946919     0.44500
H1294       H  0.96931050  0.25444047  0.88599673     0.44900
O1295       O  0.79898115  0.08117959  0.50190800    -0.74000
O1296       O  0.83297564  0.04499493  0.50093626    -0.52900
C1297       C  0.82532792  0.07181552  0.50169212     0.79700
O1298       O  0.70106289  0.49831366  0.58188892    -0.58600
O1299       O  0.66737437  0.99922011  0.54560849    -0.51600
C1300       C  0.67486892  0.99857107  0.57248344     0.71800
O1301       O  0.79896596  0.50097558  0.58206843    -0.73100
O1302       O  0.83284509  0.50038681  0.54575138    -0.53700
C1303       C  0.82532020  0.00080484  0.57256422     0.77800
O1304       O  0.70085308  0.08088429  0.49905368    -0.58300
O1305       O  0.66713811  0.04444108  0.49987653    -0.51400
C1306       C  0.67458594  0.07131755  0.49923679     0.74400
Zr1307     Zr  0.74997173  0.06075288  0.50020142     2.54700
O1308       O  0.74863812  0.09788311  0.53778257    -0.78900
O1309       O  0.75066519  0.09666611  0.96134710    -0.92300
Zr1310     Zr  0.75005086  0.49990809  0.56151978     2.64700
O1311       O  0.74956706  0.03842590  0.59772020    -0.97200
O1312       O  0.75062829  0.46157957  0.59798531    -0.79300
O1313       O  0.77814279  0.03085597  0.53134237    -0.82600
O1314       O  0.72191945  0.03073965  0.53135715    -2.17400
O1315       O  0.70128104  0.00075574  0.91904009    -0.66000
O1316       O  0.66741192  0.00013754  0.95536195    -0.50600
C1317       C  0.67503276  0.50078532  0.92842054     0.72700
O1318       O  0.79944548  0.41851020  0.49947149    -0.58900
O1319       O  0.83317412  0.45494229  0.50006169    -0.50900
C1320       C  0.82571841  0.42805650  0.99956347     0.74500
O1321       O  0.70148776  0.41815476  0.50178947    -0.70300
O1322       O  0.66751359  0.45437386  0.50109473    -0.49000
C1323       C  0.67515349  0.42753395  0.00169540     0.75900
O1324       O  0.79928919  0.99897654  0.91903818    -0.65700
O1325       O  0.83305507  0.49973047  0.95549130    -0.52900
C1326       C  0.82556428  0.49914226  0.92862493     0.74300
Zr1327     Zr  0.75028444  0.99950993  0.93940992     2.77500
O1328       O  0.75066835  0.46057066  0.90365113    -0.96400
O1329       O  0.75080366  0.03716165  0.90227386    -0.77200
Zr1330     Zr  0.75038971  0.43874851  0.50077063     2.70100
O1331       O  0.74940038  0.40137104  0.96343125    -0.78500
O1332       O  0.75208564  0.40334499  0.54001321    -0.97600
Zr1333     Zr  0.80585968  0.49993905  0.50054254     2.21500
Zr1334     Zr  0.69451599  0.99953451  0.50045992     2.11100
O1335       O  0.72217154  0.46852763  0.96955211    -2.46300
O1336       O  0.77851422  0.46875937  0.96969657    -0.78300
O1337       O  0.72197254  0.03045184  0.96937888    -0.70500
O1338       O  0.77839311  0.46897009  0.53161294    -2.31400
O1339       O  0.77826014  0.03076429  0.96931616    -2.27600
O1340       O  0.72201119  0.46879576  0.53153366    -0.72200
H1341       H  0.70928139  0.04262637  0.54315447     0.79800
H1342       H  0.79102355  0.45714092  0.54347925     0.80900
H1343       H  0.70963928  0.45656755  0.95773426     0.83100
H1344       H  0.79080939  0.04264999  0.95741710     0.80700
H1345       H  0.76440609  0.44692287  0.59037809     0.43700
H1346       H  0.73602328  0.40901620  0.55314877     0.42700
H1347       H  0.75949939  0.41026490  0.94665163     0.42400
H1348       H  0.73306324  0.44897172  0.90788430     0.40300
H1349       H  0.74179723  0.05422160  0.91177788     0.43400
H1350       H  0.76911837  0.09318932  0.95085587     0.38200
H1351       H  0.75935097  0.08920254  0.55428892     0.44300
H1352       H  0.73248901  0.05050918  0.59272016     0.40700
H1353       H  0.74635997  0.47035716  0.88498883     0.45700
H1354       H  0.75362087  0.11543942  0.97140153     0.44400
H1355       H  0.74405870  0.02859161  0.61604095     0.44500
H1356       H  0.74549720  0.38495883  0.53102432     0.44900
C1357       C  0.84856429  0.40683613  0.99924065    -0.17200
C1358       C  0.86739853  0.38862797  0.49915612     0.06900
C1359       C  0.88905438  0.36689580  0.49920131     0.08700
C1360       C  0.90721812  0.34801964  0.49937318    -0.18100
C1361       C  0.90672102  0.15190316  0.50219368    -0.17200
C1362       C  0.88852612  0.13307183  0.50237899     0.06900
C1363       C  0.86685007  0.11137737  0.50238511     0.08700
C1364       C  0.84803856  0.09316025  0.50219232    -0.18100
C1365       C  0.65245604  0.40617017  0.00216993    -0.17200
C1366       C  0.63369252  0.38790030  0.00238383     0.06900
C1367       C  0.61203150  0.36618345  0.00239656     0.08700
C1368       C  0.59380053  0.34738148  0.00218963    -0.18100
C1369       C  0.65172681  0.09249210  0.49889658    -0.17200
C1370       C  0.63285540  0.11064339  0.49887909     0.06900
C1371       C  0.61121051  0.13235707  0.49904793     0.08700
C1372       C  0.59310610  0.15127309  0.99925757    -0.18100
C1373       C  0.84837466  0.49882342  0.90740528    -0.17200
C1374       C  0.86721077  0.49857460  0.88922371     0.06900
C1375       C  0.88901324  0.99840322  0.86763388     0.08700
C1376       C  0.90715124  0.99842016  0.84875585    -0.18100
C1377       C  0.65227300  0.50128330  0.90713221    -0.17200
C1378       C  0.63343203  0.50145217  0.88894812     0.06900
C1379       C  0.61170798  0.50140711  0.86730443     0.08700
C1380       C  0.59347038  0.50121840  0.84851586    -0.18100
C1381       C  0.65206011  0.99815413  0.59374303    -0.17200
C1382       C  0.63321077  0.99798270  0.61193424     0.06900
C1383       C  0.61144224  0.49783401  0.63352076     0.08700
C1384       C  0.59326038  0.49797322  0.65237457    -0.18100
C1385       C  0.84810028  0.00117771  0.59384427    -0.17200
C1386       C  0.86690846  0.00138561  0.61206948     0.06900
C1387       C  0.88857299  0.00147314  0.63378665     0.08700
C1388       C  0.90677513  0.00134703  0.65261954    -0.18100
C1389       C  0.00146824  0.09300628  0.84858885    -0.17200
C1390       C  0.00163493  0.11118708  0.86743757     0.06900
C1391       C  0.50168067  0.13282555  0.88917653     0.08700
C1392       C  0.50157136  0.15162228  0.90740999    -0.18100
C1393       C  0.49868754  0.40641798  0.84858581    -0.17200
C1394       C  0.49848718  0.38822145  0.86743108     0.06900
C1395       C  0.49851632  0.36656001  0.88915886     0.08700
C1396       C  0.49873636  0.34776091  0.90740197    -0.18100
C1397       C  0.50158816  0.40648025  0.65240154    -0.17200
C1398       C  0.50190454  0.38826001  0.63359829     0.06900
C1399       C  0.00212060  0.36651014  0.61198134     0.08700
C1400       C  0.00207880  0.34762914  0.59384099    -0.18100
C1401       C  0.99836067  0.15126429  0.59349893    -0.17200
C1402       C  0.99818711  0.13241867  0.61168475     0.06900
C1403       C  0.99822050  0.11079719  0.63343414     0.08700
C1404       C  0.99842009  0.09269022  0.65235270    -0.18100
O1405       O  0.91869257  0.50126722  0.20167300    -0.74000
O1406       O  0.95496398  0.50010967  0.16778047    -0.52900
C1407       C  0.92811563  0.50098913  0.17535986     0.79700
O1408       O  0.00128125  0.58115638  0.29950807    -0.58600
O1409       O  0.00054889  0.54482367  0.33335253    -0.51600
C1410       C  0.00112971  0.57169596  0.32581140     0.71800
O1411       O  0.99881039  0.58100867  0.20146708    -0.73100
O1412       O  0.49956495  0.54464276  0.16767902    -0.53700
C1413       C  0.99894815  0.57150286  0.17518343     0.77800
O1414       O  0.91875793  0.49849306  0.29959247    -0.58300
O1415       O  0.95521468  0.99934829  0.33339791    -0.51400
C1416       C  0.92826529  0.49867247  0.32586877     0.74400
Zr1417     Zr  0.93914902  0.49936613  0.25061846     2.54700
O1418       O  0.90183958  0.53681671  0.25175354    -0.78900
O1419       O  0.90354522  0.96023048  0.25009502    -0.92300
Zr1420     Zr  0.99993854  0.56073382  0.25053030     2.64700
O1421       O  0.96140815  0.59699900  0.25100487    -0.97200
O1422       O  0.53804683  0.59740942  0.25007087    -0.79300
O1423       O  0.96907219  0.53048877  0.22246557    -0.82600
O1424       O  0.96904993  0.53056229  0.27868765    -2.17400
O1425       O  0.49907673  0.91827362  0.29955129    -0.66000
O1426       O  0.99971471  0.95464338  0.33333792    -0.50600
C1427       C  0.49912578  0.92777354  0.32583306     0.72700
O1428       O  0.58151097  0.99831013  0.20149192    -0.58900
O1429       O  0.54515218  0.49917876  0.16770406    -0.50900
C1430       C  0.57199858  0.99850214  0.17521362     0.74500
O1431       O  0.58161854  0.00115136  0.29946380    -0.70300
O1432       O  0.54532478  0.00031905  0.33334700    -0.49000
C1433       C  0.57218115  0.00097001  0.32577410     0.75900
O1434       O  0.50137152  0.91823664  0.20155245    -0.65700
O1435       O  0.50056928  0.95457852  0.16771976    -0.52900
C1436       C  0.50119961  0.92771316  0.17525391     0.74300
Zr1437     Zr  0.50049363  0.93863272  0.25053634     2.77500
O1438       O  0.53945239  0.90282605  0.25050774    -0.96400
O1439       O  0.96272561  0.90165100  0.24958474    -0.77200
Zr1440     Zr  0.56118199  0.00002525  0.25048334     2.70100
O1441       O  0.59844398  0.96253335  0.25191936    -0.78500
O1442       O  0.59659830  0.53925189  0.24872409    -0.97600
Zr1443     Zr  0.50007865  0.49963165  0.19488319     2.21500
Zr1444     Zr  0.00024262  0.99975362  0.30620147     2.11100
O1445       O  0.53135344  0.96883670  0.27864887    -2.46300
O1446       O  0.53125175  0.96888574  0.22237664    -0.78300
O1447       O  0.96945264  0.96861420  0.27874366    -0.70500
O1448       O  0.53099072  0.53079533  0.22231926    -2.31400
O1449       O  0.96921613  0.96846492  0.22246705    -2.27600
O1450       O  0.53103861  0.53079382  0.27869792    -0.72200
H1451       H  0.95712049  0.54237578  0.29126956     0.79800
H1452       H  0.54283205  0.54264453  0.20968250     0.80900
H1453       H  0.54330825  0.95703956  0.29122664     0.83100
H1454       H  0.95738434  0.95654220  0.20991274     0.80700
H1455       H  0.55262376  0.59005878  0.23607296     0.43700
H1456       H  0.59104609  0.55229063  0.26489781     0.42700
H1457       H  0.58990143  0.94604643  0.24108454     0.42400
H1458       H  0.55047185  0.90656946  0.26858184     0.40300
H1459       H  0.94605274  0.91071267  0.25971255     0.43400
H1460       H  0.90672476  0.95007171  0.23141612     0.38200
H1461       H  0.91085839  0.55368671  0.24191873     0.44300
H1462       H  0.94925436  0.59196651  0.26802080     0.40700
H1463       H  0.52954583  0.88405908  0.25399903     0.45700
H1464       H  0.88462164  0.97017532  0.24769798     0.44400
H1465       H  0.97124662  0.61528214  0.25659658     0.44500
H1466       H  0.61503961  0.53021127  0.25512294     0.44900
O1467       O  0.99864413  0.70042423  0.08176569    -0.74000
O1468       O  0.49966853  0.66662593  0.04543608    -0.52900
C1469       C  0.99887494  0.67412940  0.07228133     0.79700
O1470       O  0.91892879  0.79902797  0.99953086    -0.58600
O1471       O  0.95542164  0.83268333  0.00027865    -0.51600
C1472       C  0.92851941  0.82527437  0.99966184     0.71800
O1473       O  0.91853440  0.70107584  0.00173358    -0.73100
O1474       O  0.95479628  0.66713237  0.00125040    -0.53700
C1475       C  0.92794867  0.67475092  0.00171975     0.77800
O1476       O  0.00181673  0.79852607  0.08207711    -0.58300
O1477       O  0.00105255  0.83241806  0.04577517    -0.51400
C1478       C  0.00168871  0.82483994  0.07262702     0.74400
Zr1479     Zr  0.00050973  0.74957478  0.06162642     2.54700
O1480       O  0.96286289  0.75087203  0.09873149    -0.78900
O1481       O  0.53946080  0.74863733  0.09740146    -0.92300
Zr1482     Zr  0.93914096  0.74997232  0.00085504     2.64700
O1483       O  0.90277292  0.75040851  0.03929312    -0.97200
O1484       O  0.90271233  0.75003169  0.46251897    -0.79300
O1485       O  0.96925534  0.72165584  0.03167297    -0.82600
O1486       O  0.96945034  0.77790632  0.03177671    -2.17400
O1487       O  0.58190419  0.79828254  0.50175810    -0.66000
O1488       O  0.54570007  0.83227853  0.00106559    -0.50600
C1489       C  0.57253896  0.82461961  0.50166760     0.72700
O1490       O  0.50143785  0.70072423  0.41926407    -0.58900
O1491       O  0.50040751  0.66684873  0.45556007    -0.50900
C1492       C  0.50116898  0.67440892  0.42870861     0.74500
O1493       O  0.49900549  0.79873597  0.41922197    -0.70300
O1494       O  0.99992449  0.83254568  0.45555531    -0.49000
C1495       C  0.49923005  0.82502734  0.42869402     0.75900
O1496       O  0.58147773  0.70035499  0.99939339    -0.65700
O1497       O  0.54497036  0.66671485  0.00026079    -0.52900
C1498       C  0.57186631  0.67411269  0.49964887     0.74300
Zr1499     Zr  0.56126575  0.74941096  0.00027054     2.77500
O1500       O  0.59711513  0.74945965  0.46135651    -0.96400
O1501       O  0.59814886  0.74832081  0.03811793    -0.77200
Zr1502     Zr  0.49987133  0.74972357  0.43961495     2.70100
O1503       O  0.53701454  0.75076692  0.40201493    -0.78500
O1504       O  0.96048295  0.74828718  0.40438808    -0.97600
Zr1505     Zr  0.50000889  0.69404448  0.00058564     2.21500
Zr1506     Zr  0.00044746  0.80536684  0.00064933     2.11100
O1507       O  0.53119244  0.77772142  0.46944849    -2.46300
O1508       O  0.53092361  0.72142345  0.46947143    -0.78300
O1509       O  0.53141849  0.77763967  0.03140039    -0.70500
O1510       O  0.96893370  0.72166947  0.46974935    -2.31400
O1511       O  0.53129138  0.72138149  0.03144703    -2.27600
O1512       O  0.96923238  0.77804593  0.46983904    -0.72200
H1513       H  0.95769526  0.79052324  0.04372720     0.79800
H1514       H  0.95703354  0.70911467  0.45789748     0.80900
H1515       H  0.54304173  0.79026231  0.45750572     0.83100
H1516       H  0.54317143  0.70873691  0.04324881     0.80700
H1517       H  0.91109086  0.73778516  0.44696142     0.43700
H1518       H  0.94782279  0.76485054  0.40968536     0.42700
H1519       H  0.55384260  0.74065236  0.41080105     0.42400
H1520       H  0.59322956  0.76745035  0.45022729     0.40300
H1521       H  0.58872050  0.75760922  0.05506700     0.43400
H1522       H  0.55026048  0.73046648  0.09343437     0.38200
H1523       H  0.94635202  0.74019735  0.09002879     0.44300
H1524       H  0.90788378  0.76729925  0.05156754     0.40700
H1525       H  0.61584357  0.75315092  0.47125739     0.45700
H1526       H  0.52950503  0.74502742  0.11612258     0.44400
H1527       H  0.88454266  0.75619936  0.02945441     0.44500
H1528       H  0.96961606  0.75417458  0.38582482     0.44900
O1529       O  0.79901682  0.58116614  0.00188619    -0.74000
O1530       O  0.83300919  0.54497300  0.00102150    -0.52900
C1531       C  0.82536387  0.57179711  0.00172385     0.79700
O1532       O  0.70114942  0.99839142  0.08198176    -0.58600
O1533       O  0.66729378  0.49932732  0.04551247    -0.51600
C1534       C  0.67478297  0.49857344  0.07238312     0.71800
O1535       O  0.79901802  0.00082933  0.08204145    -0.73100
O1536       O  0.83286758  0.00038420  0.04569448    -0.53700
C1537       C  0.82527832  0.50089767  0.07261363     0.77800
O1538       O  0.70086943  0.58094908  0.99907747    -0.58300
O1539       O  0.66715097  0.54450558  0.99987004    -0.51400
C1540       C  0.67459953  0.57138249  0.99925663     0.74400
Zr1541     Zr  0.74998280  0.56077677  0.00020609     2.54700
O1542       O  0.74859852  0.59774006  0.03795313    -0.78900
O1543       O  0.75063611  0.59675268  0.46140722    -0.92300
Zr1544     Zr  0.75009502  0.99986304  0.06153195     2.64700
O1545       O  0.74931471  0.53852994  0.09764400    -0.97200
O1546       O  0.75044351  0.96149228  0.09796290    -0.79300
O1547       O  0.77814558  0.53087150  0.03134657    -0.82600
O1548       O  0.72189614  0.53076864  0.03132088    -2.17400
O1549       O  0.70134580  0.50086982  0.41897353    -0.66000
O1550       O  0.66745331  0.50015026  0.45527154    -0.50600
C1551       C  0.67497502  0.00071056  0.42850578     0.72700
O1552       O  0.79948846  0.91850744  0.99932459    -0.58900
O1553       O  0.83317970  0.95496931  0.00003845    -0.50900
C1554       C  0.82575015  0.92807919  0.49946078     0.74500
O1555       O  0.70156983  0.91812665  0.00174107    -0.70300
O1556       O  0.66756734  0.95431686  0.00104398    -0.49000
C1557       C  0.67523076  0.92748345  0.50162520     0.75900
O1558       O  0.79929111  0.49886766  0.41910508    -0.65700
O1559       O  0.83303240  0.99969003  0.45545091    -0.52900
C1560       C  0.82556084  0.99917492  0.42857863     0.74300
Zr1561     Zr  0.75030103  0.49949379  0.43944823     2.77500
O1562       O  0.75056746  0.96055698  0.40364339    -0.96400
O1563       O  0.75107390  0.53719685  0.40238138    -0.77200
Zr1564     Zr  0.75044457  0.93874742  0.00074744     2.70100
O1565       O  0.74935419  0.90129281  0.46349250    -0.78500
O1566       O  0.75213047  0.90340168  0.04004255    -0.97600
Zr1567     Zr  0.80584977  0.99995088  0.00050505     2.21500
Zr1568     Zr  0.69449180  0.49957354  0.00041835     2.11100
O1569       O  0.72221154  0.96853469  0.46955798    -2.46300
O1570       O  0.77852182  0.96877526  0.46964225    -0.78300
O1571       O  0.72199033  0.53047448  0.46937161    -0.70500
O1572       O  0.77844537  0.96895152  0.03160113    -2.31400
O1573       O  0.77827274  0.53074985  0.46935177    -2.27600
O1574       O  0.72206034  0.96875322  0.03154211    -0.72200
H1575       H  0.70925525  0.54265810  0.04311239     0.79800
H1576       H  0.79108818  0.95711711  0.04345008     0.80900
H1577       H  0.70968062  0.95656624  0.45774792     0.83100
H1578       H  0.79082417  0.54262764  0.45744742     0.80700
H1579       H  0.76473157  0.94713640  0.09073179     0.43700
H1580       H  0.73580044  0.90883225  0.05294874     0.42700
H1581       H  0.75989639  0.90994412  0.44685916     0.42400
H1582       H  0.73288606  0.94905448  0.40782438     0.40300
H1583       H  0.74214878  0.55428799  0.41190516     0.43400
H1584       H  0.76915172  0.59339320  0.45098782     0.38200
H1585       H  0.75972956  0.58919271  0.05425140     0.44300
H1586       H  0.73210242  0.55044680  0.09270439     0.40700
H1587       H  0.74637319  0.97035151  0.38495898     0.45700
H1588       H  0.75344271  0.61552815  0.47150015     0.44400
H1589       H  0.74398118  0.52867414  0.11600470     0.44500
H1590       H  0.74594989  0.88491341  0.03097303     0.44900
C1591       C  0.84861847  0.90688968  0.49909588    -0.17200
C1592       C  0.86748488  0.88871820  0.99898838     0.06900
C1593       C  0.88916970  0.86701951  0.99902751     0.08700
C1594       C  0.90733541  0.84814784  0.99921581    -0.18100
C1595       C  0.90663603  0.65201303  0.00214716    -0.17200
C1596       C  0.88846756  0.63315551  0.00235151     0.06900
C1597       C  0.86684636  0.61140469  0.00238535     0.08700
C1598       C  0.84807191  0.59314778  0.00221372    -0.18100
C1599       C  0.65256037  0.90609585  0.50204861    -0.17200
C1600       C  0.63381957  0.88780542  0.50224618     0.06900
C1601       C  0.61216315  0.86608816  0.50228913     0.08700
C1602       C  0.59391550  0.84730416  0.50213026    -0.18100
C1603       C  0.65172753  0.59254611  0.99893410    -0.17200
C1604       C  0.63280852  0.61064840  0.99891934     0.06900
C1605       C  0.61111459  0.63231238  0.99909230     0.08700
C1606       C  0.59300037  0.65121745  0.49931511    -0.18100
C1607       C  0.84840820  0.99884289  0.40739478    -0.17200
C1608       C  0.86731432  0.99858687  0.38928554     0.06900
C1609       C  0.88886717  0.49838296  0.36752745     0.08700
C1610       C  0.90702915  0.49839241  0.34866933    -0.18100
C1611       C  0.65220980  0.00121138  0.40722538    -0.17200
C1612       C  0.63339476  0.00144184  0.38901499     0.06900
C1613       C  0.61170734  0.00149998  0.36733248     0.08700
C1614       C  0.59348772  0.00137015  0.34852348    -0.18100
C1615       C  0.65196822  0.49811217  0.09362898    -0.17200
C1616       C  0.63312885  0.49789781  0.11182623     0.06900
C1617       C  0.61147812  0.99794419  0.13358880     0.08700
C1618       C  0.59325002  0.99806851  0.15240157    -0.18100
C1619       C  0.84805170  0.50131809  0.09390546    -0.17200
C1620       C  0.86688096  0.50156119  0.11211081     0.06900
C1621       C  0.88857913  0.50166731  0.13379657     0.08700
C1622       C  0.90680021  0.50152290  0.15261147    -0.18100
C1623       C  0.00150259  0.59299436  0.34858993    -0.17200
C1624       C  0.00165545  0.61119518  0.36742746     0.06900
C1625       C  0.50169564  0.63284885  0.38916383     0.08700
C1626       C  0.50158124  0.65164147  0.40740862    -0.18100
C1627       C  0.49861816  0.90652205  0.34864617    -0.17200
C1628       C  0.49843059  0.88833619  0.36750126     0.06900
C1629       C  0.49849659  0.86665443  0.38920922     0.08700
C1630       C  0.49875802  0.84782323  0.40741993    -0.18100
C1631       C  0.50167471  0.90644464  0.15247470    -0.17200
C1632       C  0.50198763  0.88821746  0.13367990     0.06900
C1633       C  0.00217385  0.86647208  0.11206061     0.08700
C1634       C  0.00210461  0.84760574  0.09390633    -0.18100
C1635       C  0.99836547  0.65131097  0.09351354    -0.17200
C1636       C  0.99819986  0.63246769  0.11170271     0.06900
C1637       C  0.99826237  0.61083927  0.13344723     0.08700
C1638       C  0.99849237  0.59272183  0.15235710    -0.18100
O1639       O  0.91869253  0.50126713  0.70167302    -0.74000
O1640       O  0.95496392  0.50010976  0.66778046    -0.52900
C1641       C  0.92811556  0.50098916  0.67535987     0.79700
O1642       O  0.00128134  0.58115633  0.79950808    -0.58600
O1643       O  0.00054877  0.54482363  0.83335255    -0.51600
C1644       C  0.00112970  0.57169591  0.82581141     0.71800
O1645       O  0.99881045  0.58100873  0.70146711    -0.73100
O1646       O  0.49956490  0.54464279  0.66767907    -0.53700
C1647       C  0.99894820  0.57150290  0.67518347     0.77800
O1648       O  0.91875787  0.49849315  0.79959244    -0.58300
O1649       O  0.95521462  0.99934834  0.83339787    -0.51400
C1650       C  0.92826525  0.49867245  0.82586873     0.74400
Zr1651     Zr  0.93914906  0.49936617  0.75061845     2.54700
O1652       O  0.90183968  0.53681679  0.75175353    -0.78900
O1653       O  0.90354501  0.96023053  0.75009496    -0.92300
Zr1654     Zr  0.99993859  0.56073383  0.75053032     2.64700
O1655       O  0.96140796  0.59699876  0.75100491    -0.97200
O1656       O  0.53804669  0.59740950  0.75007088    -0.79300
O1657       O  0.96907225  0.53048881  0.72246556    -0.82600
O1658       O  0.96905003  0.53056230  0.77868767    -2.17400
O1659       O  0.49907665  0.91827355  0.79955126    -0.66000
O1660       O  0.99971458  0.95464330  0.83333790    -0.50600
C1661       C  0.49912579  0.92777346  0.82583303     0.72700
O1662       O  0.58151103  0.99831019  0.70149191    -0.58900
O1663       O  0.54515215  0.49917861  0.66770400    -0.50900
C1664       C  0.57199861  0.99850222  0.67521362     0.74500
O1665       O  0.58161860  0.00115136  0.79946380    -0.70300
O1666       O  0.54532483  0.00031906  0.83334698    -0.49000
C1667       C  0.57218119  0.00096998  0.82577409     0.75900
O1668       O  0.50137160  0.91823662  0.70155241    -0.65700
O1669       O  0.50056938  0.95457856  0.66771979    -0.52900
C1670       C  0.50119971  0.92771318  0.67525387     0.74300
Zr1671     Zr  0.50049354  0.93863276  0.75053630     2.77500
O1672       O  0.53945224  0.90282612  0.75050749    -0.96400
O1673       O  0.96272548  0.90165112  0.74958476    -0.77200
Zr1674     Zr  0.56118206  0.00002512  0.75048334     2.70100
O1675       O  0.59844391  0.96253310  0.75191933    -0.78500
O1676       O  0.59659838  0.53925199  0.74872413    -0.97600
Zr1677     Zr  0.50007865  0.49963161  0.69488320     2.21500
Zr1678     Zr  0.00024253  0.99975355  0.80620147     2.11100
O1679       O  0.53135338  0.96883664  0.77864879    -2.46300
O1680       O  0.53125172  0.96888569  0.72237662    -0.78300
O1681       O  0.96945258  0.96861416  0.77874362    -0.70500
O1682       O  0.53099067  0.53079526  0.72231932    -2.31400
O1683       O  0.96921617  0.96846496  0.72246707    -2.27600
O1684       O  0.53103864  0.53079387  0.77869791    -0.72200
H1685       H  0.95712060  0.54237581  0.79126957     0.79800
H1686       H  0.54283199  0.54264437  0.70968257     0.80900
H1687       H  0.54330809  0.95703948  0.79122653     0.83100
H1688       H  0.95738442  0.95654223  0.70991273     0.80700
H1689       H  0.55262368  0.59005880  0.73607304     0.43700
H1690       H  0.59104620  0.55229068  0.76489790     0.42700
H1691       H  0.58990142  0.94604637  0.74108421     0.42400
H1692       H  0.55047177  0.90656954  0.76858154     0.40300
H1693       H  0.94605259  0.91071284  0.75971247     0.43400
H1694       H  0.90672464  0.95007173  0.73141615     0.38200
H1695       H  0.91085851  0.55368679  0.74191871     0.44300
H1696       H  0.94925430  0.59196636  0.76802099     0.40700
H1697       H  0.52954568  0.88405912  0.75399887     0.45700
H1698       H  0.88462149  0.97017540  0.74769788     0.44400
H1699       H  0.97124639  0.61528197  0.75659638     0.44500
H1700       H  0.61503968  0.53021135  0.75512288     0.44900
O1701       O  0.99864409  0.70042423  0.58176567    -0.74000
O1702       O  0.49966860  0.66662581  0.54543606    -0.52900
C1703       C  0.99887490  0.67412939  0.57228132     0.79700
O1704       O  0.91892880  0.79902795  0.49953085    -0.58600
O1705       O  0.95542164  0.83268334  0.50027864    -0.51600
C1706       C  0.92851941  0.82527437  0.49966184     0.71800
O1707       O  0.91853439  0.70107581  0.50173374    -0.73100
O1708       O  0.95479629  0.66713237  0.50125037    -0.53700
C1709       C  0.92794868  0.67475090  0.50171980     0.77800
O1710       O  0.00181664  0.79852606  0.58207712    -0.58300
O1711       O  0.00105245  0.83241803  0.54577517    -0.51400
C1712       C  0.00168864  0.82483991  0.57262702     0.74400
Zr1713     Zr  0.00050976  0.74957480  0.56162639     2.54700
O1714       O  0.96286300  0.75087191  0.59873151    -0.78900
O1715       O  0.53946069  0.74863741  0.59740147    -0.92300
Zr1716     Zr  0.93914096  0.74997228  0.50085493     2.64700
O1717       O  0.90277289  0.75040859  0.53929303    -0.97200
O1718       O  0.90271235  0.75003180  0.96251916    -0.79300
O1719       O  0.96925537  0.72165584  0.53167292    -0.82600
O1720       O  0.96945031  0.77790632  0.53177662    -2.17400
O1721       O  0.58190422  0.79828257  0.00175811    -0.66000
O1722       O  0.54570005  0.83227851  0.50106558    -0.50600
C1723       C  0.57253900  0.82461963  0.00166762     0.72700
O1724       O  0.50143777  0.70072432  0.91926407    -0.58900
O1725       O  0.50040762  0.66684881  0.95556007    -0.50900
C1726       C  0.50116899  0.67440900  0.92870861     0.74500
O1727       O  0.49900558  0.79873597  0.91922197    -0.70300
O1728       O  0.99992459  0.83254564  0.95555529    -0.49000
C1729       C  0.49923016  0.82502735  0.92869401     0.75900
O1730       O  0.58147777  0.70035497  0.49939340    -0.65700
O1731       O  0.54497042  0.66671481  0.50026078    -0.52900
C1732       C  0.57186626  0.67411270  0.99964886     0.74300
Zr1733     Zr  0.56126580  0.74941091  0.50027052     2.77500
O1734       O  0.59711504  0.74945948  0.96135654    -0.96400
O1735       O  0.59814895  0.74832087  0.53811791    -0.77200
Zr1736     Zr  0.49987130  0.74972364  0.93961504     2.70100
O1737       O  0.53701455  0.75076675  0.90201509    -0.78500
O1738       O  0.96048278  0.74828729  0.90438826    -0.97600
Zr1739     Zr  0.50000890  0.69404442  0.50058561     2.21500
Zr1740     Zr  0.00044743  0.80536685  0.50064929     2.11100
O1741       O  0.53119254  0.77772163  0.96944839    -2.46300
O1742       O  0.53092357  0.72142353  0.96947150    -0.78300
O1743       O  0.53141857  0.77763964  0.53140042    -0.70500
O1744       O  0.96893386  0.72166966  0.96974959    -2.31400
O1745       O  0.53129121  0.72138164  0.53144691    -2.27600
O1746       O  0.96923237  0.77804594  0.96983911    -0.72200
H1747       H  0.95769516  0.79052325  0.54372703     0.79800
H1748       H  0.95703378  0.70911491  0.95789783     0.80900
H1749       H  0.54304195  0.79026257  0.95750554     0.83100
H1750       H  0.54317115  0.70873718  0.54324868     0.80700
H1751       H  0.91109096  0.73778533  0.94696160     0.43700
H1752       H  0.94782268  0.76485068  0.90968555     0.42700
H1753       H  0.55384258  0.74065229  0.91080132     0.42400
H1754       H  0.59322957  0.76745021  0.95022732     0.40300
H1755       H  0.58872048  0.75760906  0.55506704     0.43400
H1756       H  0.55026032  0.73046652  0.59343445     0.38200
H1757       H  0.94635205  0.74019745  0.59002869     0.44300
H1758       H  0.90788372  0.76729931  0.55156749     0.40700
H1759       H  0.61584353  0.75315065  0.97125742     0.45700
H1760       H  0.52950492  0.74502759  0.61612261     0.44400
H1761       H  0.88454260  0.75619942  0.52945436     0.44500
H1762       H  0.96961584  0.75417461  0.88582499     0.44900
O1763       O  0.79901679  0.58116618  0.50188615    -0.74000
O1764       O  0.83300916  0.54497300  0.50102166    -0.52900
C1765       C  0.82536383  0.57179712  0.50172394     0.79700
O1766       O  0.70114937  0.99839149  0.58198180    -0.58600
O1767       O  0.66729372  0.49932724  0.54551244    -0.51600
C1768       C  0.67478294  0.49857341  0.57238308     0.71800
O1769       O  0.79901799  0.00082936  0.58204150    -0.73100
O1770       O  0.83286755  0.00038422  0.54569453    -0.53700
C1771       C  0.82527833  0.50089753  0.57261363     0.77800
O1772       O  0.70086946  0.58094912  0.49907731    -0.58300
O1773       O  0.66715104  0.54450558  0.49987008    -0.51400
C1774       C  0.67459957  0.57138250  0.49925658     0.74400
Zr1775     Zr  0.74998277  0.56077671  0.50020612     2.54700
O1776       O  0.74859862  0.59774009  0.53795309    -0.78900
O1777       O  0.75063627  0.59675282  0.96140721    -0.92300
Zr1778     Zr  0.75009497  0.99986304  0.56153200     2.64700
O1779       O  0.74931457  0.53853000  0.59764402    -0.97200
O1780       O  0.75044369  0.96149212  0.59796282    -0.79300
O1781       O  0.77814564  0.53087144  0.53134652    -0.82600
O1782       O  0.72189607  0.53076864  0.53132090    -2.17400
O1783       O  0.70134579  0.50086984  0.91897356    -0.66000
O1784       O  0.66745332  0.50015030  0.95527160    -0.50600
C1785       C  0.67497503  0.00071059  0.92850577     0.72700
O1786       O  0.79948844  0.91850735  0.49932460    -0.58900
O1787       O  0.83317960  0.95496929  0.50003846    -0.50900
C1788       C  0.82575021  0.92807923  0.99946078     0.74500
O1789       O  0.70156978  0.91812669  0.50174108    -0.70300
O1790       O  0.66756725  0.95431687  0.50104397    -0.49000
C1791       C  0.67523083  0.92748345  0.00162517     0.75900
O1792       O  0.79929117  0.49886773  0.91910503    -0.65700
O1793       O  0.83303249  0.99968993  0.95545086    -0.52900
C1794       C  0.82556092  0.99917495  0.92857860     0.74300
Zr1795     Zr  0.75030109  0.49949379  0.93944819     2.77500
O1796       O  0.75056761  0.96055710  0.90364338    -0.96400
O1797       O  0.75107380  0.53719688  0.90238139    -0.77200
Zr1798     Zr  0.75044459  0.93874742  0.50074743     2.70100
O1799       O  0.74935428  0.90129264  0.96349269    -0.78500
O1800       O  0.75213058  0.90340181  0.54004260    -0.97600
Zr1801     Zr  0.80584973  0.99995090  0.50050513     2.21500
Zr1802     Zr  0.69449178  0.49957347  0.50041834     2.11100
O1803       O  0.72221157  0.96853476  0.96955800    -2.46300
O1804       O  0.77852175  0.96877525  0.96964224    -0.78300
O1805       O  0.72199041  0.53047451  0.96937160    -0.70500
O1806       O  0.77844537  0.96895146  0.53160123    -2.31400
O1807       O  0.77827288  0.53075002  0.96935162    -2.27600
O1808       O  0.72206035  0.96875316  0.53154217    -0.72200
H1809       H  0.70925516  0.54265811  0.54311237     0.79800
H1810       H  0.79108818  0.95711696  0.54345020     0.80900
H1811       H  0.70968065  0.95656640  0.95774797     0.83100
H1812       H  0.79082444  0.54262787  0.95744723     0.80700
H1813       H  0.76473170  0.94713626  0.59073165     0.43700
H1814       H  0.73580045  0.90883229  0.55294875     0.42700
H1815       H  0.75989626  0.90994402  0.94685925     0.42400
H1816       H  0.73288623  0.94905456  0.90782441     0.40300
H1817       H  0.74214867  0.55428801  0.91190521     0.43400
H1818       H  0.76915184  0.59339333  0.95098784     0.38200
H1819       H  0.75972967  0.58919278  0.55425138     0.44300
H1820       H  0.73210238  0.55044690  0.59270428     0.40700
H1821       H  0.74637324  0.97035163  0.88495896     0.45700
H1822       H  0.75344279  0.61552827  0.97150014     0.44400
H1823       H  0.74398090  0.52867422  0.61600467     0.44500
H1824       H  0.74595012  0.88491352  0.53097305     0.44900
C1825       C  0.84861844  0.90688966  0.99909587    -0.17200
C1826       C  0.86748493  0.88871826  0.49898839     0.06900
C1827       C  0.88916968  0.86701948  0.49902752     0.08700
C1828       C  0.90733540  0.84814782  0.49921583    -0.18100
C1829       C  0.90663609  0.65201295  0.50214716    -0.17200
C1830       C  0.88846760  0.63315546  0.50235150     0.06900
C1831       C  0.86684636  0.61140465  0.50238539     0.08700
C1832       C  0.84807192  0.59314777  0.50221384    -0.18100
C1833       C  0.65256042  0.90609590  0.00204849    -0.17200
C1834       C  0.63381961  0.88780549  0.00224613     0.06900
C1835       C  0.61216318  0.86608821  0.00228914     0.08700
C1836       C  0.59391555  0.84730420  0.00213027    -0.18100
C1837       C  0.65172754  0.59254610  0.49893405    -0.17200
C1838       C  0.63280846  0.61064831  0.49891922     0.06900
C1839       C  0.61111456  0.63231232  0.49909226     0.08700
C1840       C  0.59300031  0.65121744  0.99931510    -0.18100
C1841       C  0.84840827  0.99884297  0.90739476    -0.17200
C1842       C  0.86731441  0.99858696  0.88928555     0.06900
C1843       C  0.88886717  0.49838294  0.86752742     0.08700
C1844       C  0.90702914  0.49839237  0.84866931    -0.18100
C1845       C  0.65220986  0.00121140  0.90722533    -0.17200
C1846       C  0.63339481  0.00144179  0.88901496     0.06900
C1847       C  0.61170734  0.00149995  0.86733250     0.08700
C1848       C  0.59348774  0.00137007  0.84852349    -0.18100
C1849       C  0.65196823  0.49811224  0.59362899    -0.17200
C1850       C  0.63312892  0.49789786  0.61182631     0.06900
C1851       C  0.61147809  0.99794427  0.63358880     0.08700
C1852       C  0.59325002  0.99806859  0.65240158    -0.18100
C1853       C  0.84805174  0.50131799  0.59390541    -0.17200
C1854       C  0.86688100  0.50156117  0.61211076     0.06900
C1855       C  0.88857909  0.50166727  0.63379658     0.08700
C1856       C  0.90680015  0.50152292  0.65261149    -0.18100
C1857       C  0.00150260  0.59299438  0.84858992    -0.17200
C1858       C  0.00165543  0.61119524  0.86742743     0.06900
C1859       C  0.50169552  0.63284892  0.88916381     0.08700
C1860       C  0.50158118  0.65164154  0.90740861    -0.18100
C1861       C  0.49861809  0.90652200  0.84864615    -0.17200
C1862       C  0.49843052  0.88833620  0.86750129     0.06900
C1863       C  0.49849666  0.86665443  0.88920924     0.08700
C1864       C  0.49875814  0.84782320  0.90741989    -0.18100
C1865       C  0.50167477  0.90644472  0.65247459    -0.17200
C1866       C  0.50198761  0.88821748  0.63367982     0.06900
C1867       C  0.00217384  0.86647203  0.61206063     0.08700
C1868       C  0.00210462  0.84760571  0.59390633    -0.18100
C1869       C  0.99836540  0.65131096  0.59351354    -0.17200
C1870       C  0.99819975  0.63246768  0.61170272     0.06900
C1871       C  0.99826231  0.61083926  0.63344722     0.08700
C1872       C  0.99849239  0.59272188  0.65235715    -0.18100
loop_ 
_geom_bond_atom_site_label_1 
_geom_bond_atom_site_label_2 
_geom_bond_distance 
_geom_bond_site_symmetry_2 
_ccdc_geom_bond_type 
O1          Zr13   2.445   1_545  S
O1            C3   1.287       .  A
O2         Zr975   2.423   1_545  S
O2            C3   1.285       .  A
C3          C218   1.436       .  S
O4          Zr16   2.444       .  S
O4            C6   1.287       .  A
O5         Zr508   2.424   1_545  S
O5            C6   1.285       .  A
C6          C219   1.436       .  S
O7          Zr16   2.444       .  S
O7            C9   1.287       .  A
O8          Zr39   2.421   1_645  S
O8          C945   1.284       .  A
C9          O944   1.284       .  A
C9          C234   1.435       .  S
O10         Zr13   2.443       .  S
O10          C12   1.287       .  A
O11         Zr40   2.423       .  S
O11         C480   1.285       .  A
C12         O479   1.284       .  A
C12         C206   1.434       .  S
Zr13         O14   2.434   1_565  S
Zr13        O483   2.435       .  S
Zr13         O19   2.372   1_565  S
Zr13         O20   2.373   1_565  S
Zr13        O511   2.372       .  S
Zr13        O513   2.372       .  S
O14          H57   0.990       .  S
O15        Zr481   2.436       .  S
O15          H56   0.990       .  S
O15          H60   0.990       .  S
Zr16         O17   2.436       .  S
Zr16        O954   2.435       .  S
Zr16         O20   2.372       .  S
Zr16         O19   2.373       .  S
Zr16        O980   2.373       .  S
Zr16        O982   2.373       .  S
O17          H58   0.990       .  S
O17          H61   0.990       .  S
O18        Zr952   2.435   1_455  S
O18          H51   0.990       .  S
O19        Zr975   2.381   1_545  S
O20        Zr508   2.384   1_545  S
O20          H47   0.966       .  S
O21         Zr33   2.444   1_655  S
O21          C23   1.287       .  A
O22         Zr40   2.424       .  S
O22         C959   1.285       .  A
C23         O958   1.285       .  A
C23         C223   1.435       .  S
O24         Zr36   2.443       .  S
O24          C26   1.287       .  A
O25         Zr39   2.423       .  S
O25         C494   1.285       .  A
C26         O493   1.285       .  A
C26         C214   1.435       .  S
O27         Zr36   2.444       .  S
O27          C29   1.287       .  A
O28        Zr976   2.423       .  S
O28          C29   1.285       .  A
C29         C210   1.435       .  S
O30         Zr33   2.444       .  S
O30          C32   1.287       .  A
O31        Zr507   2.423       .  S
O31          C32   1.285       .  A
C32         C227   1.436       .  S
Zr33         O34   2.435       .  S
Zr33        O971   2.434   1_455  S
Zr33         O41   2.373       .  S
Zr33         O42   2.371       .  S
Zr33        O981   2.372   1_455  S
Zr33        O979   2.374   1_455  S
O34          H54   0.990       .  S
O34          H59   0.990       .  S
O35        Zr969   2.434       .  S
O35          H55   0.990       .  S
Zr36         O37   2.434       .  S
Zr36        O506   2.435       .  S
Zr36         O42   2.373       .  S
Zr36         O41   2.372       .  S
Zr36        O514   2.372       .  S
Zr36        O512   2.371       .  S
O37          H53   0.990       .  S
O38        Zr504   2.435       .  S
O38          H52   0.990       .  S
O38          H62   0.990       .  S
Zr39        O938   2.423   1_465  S
Zr39        O499   2.423       .  S
Zr39         O44   2.384   1_565  S
Zr39        O955   2.381   1_465  S
Zr39        O510   2.380       .  S
Zr39       O1449   2.383   1_455  S
Zr40        O473   2.425       .  S
Zr40        O964   2.423       .  S
Zr40         O43   2.380       .  S
Zr40        O488   2.384       .  S
Zr40        O977   2.385       .  S
Zr40       O1450   2.380       .  S
O41        Zr976   2.385       .  S
O41          H49   0.966       .  S
O42        Zr507   2.380       .  S
O43        Zr481   2.372       .  S
O43        Zr969   2.374       .  S
O44        Zr952   2.373   1_455  S
O44        Zr504   2.371       .  S
O44          H48   0.966       .  S
O45        Zr481   2.372       .  S
O45        Zr969   2.372       .  S
O45       Zr1443   2.383       .  S
O45          H50   0.966       .  S
O46        Zr952   2.373   1_455  S
O46        Zr504   2.372       .  S
O46       Zr1444   2.380   1_545  S
O63         Zr75   2.447       .  S
O63          C65   1.287       .  A
O64        Zr101   2.420   1_655  S
O64        C1001   1.284       .  A
C65        O1000   1.284       .  A
C65         C231   1.435       .  S
O66         Zr78   2.443   1_556  S
O66          C68   1.287       .  A
O67        Zr102   2.424       .  S
O67          C68   1.285   1_554  A
C68         C190   1.435       .  S
O69         Zr78   2.443       .  S
O69          C71   1.287       .  A
O70       Zr1037   2.423       .  S
O70          C71   1.285       .  A
C71         C191   1.435       .  S
O72         Zr75   2.444       .  S
O72          C74   1.287       .  A
O73        Zr102   2.423       .  S
O73          C74   1.285       .  A
C74         C230   1.435       .  S
Zr75         O76   2.434       .  S
Zr75       O1013   2.436       .  S
Zr75         O81   2.373       .  S
Zr75         O82   2.373       .  S
Zr75       O1041   2.372       .  S
Zr75       O1043   2.372       .  S
O76         H119   0.990       .  S
O77       Zr1011   2.436       .  S
O77         H118   0.990       .  S
O77         H122   0.990       .  S
Zr78         O79   2.436       .  S
Zr78        O314   2.435   1_554  S
Zr78         O82   2.373       .  S
Zr78         O81   2.373       .  S
Zr78        O340   2.373   1_554  S
Zr78        O342   2.372   1_554  S
O79         H120   0.990       .  S
O79         H123   0.990       .  S
O80        Zr312   2.435       .  S
O80         H113   0.990       .  S
O81       Zr1037   2.381       .  S
O82        Zr102   2.385       .  S
O82         H109   0.966       .  S
O83        Zr329   2.444       .  S
O83          C85   1.287       .  A
O84       Zr1038   2.424       .  S
O84         C319   1.285       .  A
C85         O318   1.285       .  A
C85         C198   1.435       .  S
O86         Zr98   2.444   1_455  S
O86          C88   1.287       .  A
O87        Zr335   2.423       .  S
O87          C88   1.285       .  A
C88         C222   1.436       .  S
O89         Zr98   2.443       .  S
O89          C91   1.287       .  A
O90        Zr336   2.424       .  S
O90        C1027   1.285       .  A
C91        O1026   1.285       .  A
C91         C226   1.435       .  S
O92         Zr95   2.443   1_556  S
O92         C328   1.287       .  A
O93        Zr101   2.422       .  S
O93         C328   1.285   1_554  A
C94         O326   1.287       .  A
C94         O327   1.285       .  A
C94         C202   1.434       .  S
Zr95        O317   2.444       .  S
Zr95         O97   2.434       .  S
Zr95        O330   2.436   1_554  S
Zr95        O107   2.372       .  S
Zr95        O105   2.373       .  S
Zr95        O337   2.372   1_554  S
Zr95        O338   2.372   1_554  S
O96        Zr329   2.436       .  S
O96         H116   0.990       .  S
O96         H121   0.990       .  S
O97         H117   0.990       .  S
Zr98         O99   2.433   1_655  S
Zr98       O1036   2.434       .  S
Zr98        O104   2.373   1_655  S
Zr98        O103   2.373   1_655  S
Zr98       O1044   2.372       .  S
Zr98       O1042   2.370       .  S
O99         H115   0.990       .  S
O100      Zr1034   2.434       .  S
O100        H114   0.990       .  S
O100        H124   0.990       .  S
Zr101      O1006   2.423   1_455  S
Zr101       O321   2.423   1_554  S
Zr101       O107   2.384       .  S
Zr101      O1017   2.381   1_455  S
Zr101       O338   2.380   1_554  S
Zr101      O1276   2.382   1_454  S
Zr102      O1020   2.424       .  S
Zr102       O324   2.424   1_554  S
Zr102      O1273   2.385   1_554  S
Zr102      O1041   2.380       .  S
Zr102       O342   2.380   1_554  S
O103       Zr329   2.372       .  S
O103      Zr1272   2.385       .  S
O103        H111   0.966       .  S
O104       Zr329   2.372       .  S
O104       Zr335   2.380       .  S
O105      Zr1011   2.372       .  S
O105      Zr1038   2.380       .  S
O106       Zr312   2.373       .  S
O106      Zr1034   2.370       .  S
O106      Zr1271   2.382       .  S
O106        H110   0.966       .  S
O107      Zr1011   2.372       .  S
O107        H112   0.966       .  S
O108       Zr312   2.372       .  S
O108      Zr1034   2.372       .  S
O108       Zr336   2.380       .  S
O125       Zr137   2.446       .  S
O125        C127   1.287       .  A
O126       Zr631   2.421   1_545  S
O126        C127   1.284       .  A
C127        C194   1.435       .  S
O128       Zr140   2.443       .  S
O128        C598   1.287       .  A
O129       Zr164   2.425       .  S
O129        C130   1.285       .  A
C130        O596   1.287       .  A
C130        C211   1.435       .  S
O131       Zr140   2.443       .  S
O131        C601   1.287       .  A
O132       Zr163   2.424       .  S
O132        C601   1.285       .  A
C133        O599   1.287       .  A
C133        O600   1.285       .  A
C133        C215   1.435       .  S
O134       Zr137   2.444   1_556  S
O134        C136   1.287       .  A
O135       Zr164   2.421   1_546  S
O135        C136   1.284       .  A
C136        C199   1.434       .  S
Zr137       O138   2.434       .  S
Zr137       O373   2.436   1_554  S
Zr137       O143   2.373       .  S
Zr137       O144   2.373       .  S
Zr137       O401   2.372   1_554  S
Zr137       O403   2.371   1_554  S
O138        H181   0.990       .  S
O139       Zr371   2.436       .  S
O139        H180   0.990       .  S
O139        H184   0.990       .  S
Zr140       O142   2.435       .  S
Zr140       O609   2.436       .  S
Zr140       O168   2.372       .  S
Zr140       O170   2.372       .  S
Zr140       O612   2.373       .  S
Zr140       O611   2.373       .  S
O141       Zr608   2.436   1_545  S
O141        H182   0.990       .  S
O141        H185   0.990       .  S
O142        H175   0.990       .  S
O143       Zr608   2.373   1_545  S
O143       Zr631   2.381   1_545  S
O144       Zr164   2.384   1_545  S
O144       Zr608   2.373   1_545  S
O144        H171   0.966       .  S
O145       Zr157   2.444   1_545  S
O145        C615   1.287       .  A
O146       Zr398   2.423   1_545  S
O146        C615   1.285       .  A
C147        O613   1.287       .  A
C147        O614   1.285       .  A
C147        C207   1.435       .  S
O148       Zr160   2.443   1_556  S
O148        C384   1.287       .  A
O149       Zr163   2.423       .  S
O149        C384   1.285   1_554  A
C150        O382   1.287       .  A
C150        O383   1.285       .  A
C150        C187   1.435       .  S
O151       Zr160   2.443       .  S
O151        C387   1.287       .  A
O152       Zr632   2.424       .  S
O152        C387   1.285       .  A
C153        O385   1.287       .  A
C153        O386   1.285       .  A
C153        C195   1.435       .  S
O154       Zr157   2.443       .  S
O154        C624   1.287       .  A
O155       Zr397   2.423       .  S
O155        C156   1.285       .  A
C156        O622   1.287       .  A
C156        C203   1.434       .  S
Zr157       O159   2.434   1_565  S
Zr157       O626   2.435       .  S
Zr157       O169   2.373   1_565  S
Zr157       O167   2.373   1_565  S
Zr157       O633   2.372       .  S
Zr157       O634   2.372       .  S
O158       Zr625   2.435       .  S
O158        H178   0.990       .  S
O158        H183   0.990       .  S
O159        H179   0.990       .  S
Zr160       O162   2.434       .  S
Zr160       O395   2.434   1_554  S
Zr160       O170   2.372       .  S
Zr160       O168   2.370       .  S
Zr160       O400   2.373   1_554  S
Zr160       O399   2.373   1_554  S
O161       Zr394   2.434       .  S
O161        H177   0.990       .  S
O162        H176   0.990       .  S
O162        H186   0.990       .  S
Zr163       O594   2.421       .  S
Zr163       O389   2.423   1_554  S
Zr163       O168   2.382       .  S
Zr163       O611   2.381       .  S
Zr163       O400   2.380   1_554  S
Zr163       O871   2.384   1_554  S
Zr164       O380   2.423   1_564  S
Zr164       O620   2.424       .  S
Zr164       O867   2.385   1_554  S
Zr164       O401   2.381   1_564  S
Zr164       O638   2.379       .  S
O165       Zr625   2.372       .  S
O165       Zr394   2.373       .  S
O165       Zr866   2.385       .  S
O165        H173   0.966       .  S
O166       Zr625   2.372       .  S
O166       Zr394   2.373       .  S
O166       Zr397   2.380       .  S
O167       Zr371   2.372       .  S
O167       Zr398   2.381   1_545  S
O168        H172   0.966       .  S
O169       Zr371   2.371       .  S
O169       Zr865   2.384   1_545  S
O169        H174   0.966       .  S
O170       Zr632   2.380       .  S
C187        C422   1.206       .  T
C188        C421   1.206       .  T
C188        C189   1.412       .  S
C189        C190   1.206       .  T
C191        C192   1.206       .  T
C192        C193   1.412       .  S
C193        C194   1.206       .  T
C195        C196   1.206       .  T
C196        C197   1.412       .  S
C197        C198   1.206       .  T
C199        C200   1.205       .  T
C200        C201   1.411       .  S
C201        C436   1.205       .  T
C202        C435   1.205       .  T
C203        C204   1.205       .  T
C204        C673   1.411       .  S
C205        C206   1.205       .  T
C205        C672   1.411       .  S
C207        C208   1.206       .  T
C208        C209   1.412       .  S
C209        C210   1.206       .  T
C211        C212   1.206       .  T
C212        C681   1.412       .  S
C213        C214   1.206       .  T
C213        C680   1.412       .  S
C215        C216   1.206       .  T
C216        C217   1.412       .  S
C217        C218   1.206       .  T
C219        C220   1.206       .  T
C220       C1157   1.413       .  S
C221        C222   1.206       .  T
C221       C1156   1.413       .  S
C223        C224   1.206       .  T
C224        C225   1.412       .  S
C225        C226   1.206       .  T
C227        C228   1.206       .  T
C228       C1165   1.412       .  S
C229        C230   1.206       .  T
C229       C1164   1.412       .  S
C231        C232   1.205       .  T
C232        C233   1.412       .  S
C233        C234   1.205       .  T
O235       Zr247   2.445   1_545  S
O235        C237   1.287       .  A
O236      Zr1209   2.423   1_545  S
O236        C237   1.285       .  A
C237        C452   1.436       .  S
O238       Zr250   2.444       .  S
O238        C240   1.287       .  A
O239       Zr742   2.424   1_545  S
O239        C240   1.285       .  A
C240        C453   1.436       .  S
O241       Zr250   2.444       .  S
O241        C243   1.287       .  A
O242       Zr273   2.421   1_645  S
O242       C1179   1.284       .  A
C243       O1178   1.284       .  A
C243        C468   1.435       .  S
O244       Zr247   2.443       .  S
O244        C246   1.287       .  A
O245       Zr274   2.423       .  S
O245        C714   1.285       .  A
C246        O713   1.284       .  A
C246        C440   1.434       .  S
Zr247       O248   2.434   1_565  S
Zr247       O717   2.435       .  S
Zr247       O253   2.372   1_565  S
Zr247       O254   2.373   1_565  S
Zr247       O745   2.372       .  S
Zr247       O747   2.372       .  S
O248        H291   0.990       .  S
O249       Zr715   2.436       .  S
O249        H290   0.990       .  S
O249        H294   0.990       .  S
Zr250       O251   2.436       .  S
Zr250      O1188   2.435       .  S
Zr250       O254   2.372       .  S
Zr250       O253   2.373       .  S
Zr250      O1214   2.373       .  S
Zr250      O1216   2.373       .  S
O251        H292   0.990       .  S
O251        H295   0.990       .  S
O252      Zr1186   2.435   1_455  S
O252        H285   0.990       .  S
O253      Zr1209   2.381   1_545  S
O254       Zr742   2.384   1_545  S
O254        H281   0.966       .  S
O255       Zr267   2.444   1_655  S
O255        C257   1.287       .  A
O256       Zr274   2.424       .  S
O256       C1193   1.285       .  A
C257       O1192   1.285       .  A
C257        C457   1.435       .  S
O258       Zr270   2.443       .  S
O258        C260   1.287       .  A
O259       Zr273   2.423       .  S
O259        C728   1.285       .  A
C260        O727   1.285       .  A
C260        C448   1.435       .  S
O261       Zr270   2.444       .  S
O261        C263   1.287       .  A
O262      Zr1210   2.423       .  S
O262        C263   1.285       .  A
C263        C444   1.435       .  S
O264       Zr267   2.444       .  S
O264        C266   1.287       .  A
O265       Zr741   2.423       .  S
O265        C266   1.285       .  A
C266        C461   1.436       .  S
Zr267       O268   2.435       .  S
Zr267      O1205   2.434   1_455  S
Zr267       O275   2.373       .  S
Zr267       O276   2.371       .  S
Zr267      O1215   2.372   1_455  S
Zr267      O1213   2.374   1_455  S
O268        H288   0.990       .  S
O268        H293   0.990       .  S
O269      Zr1203   2.434       .  S
O269        H289   0.990       .  S
Zr270       O271   2.434       .  S
Zr270       O740   2.435       .  S
Zr270       O276   2.373       .  S
Zr270       O275   2.372       .  S
Zr270       O748   2.372       .  S
Zr270       O746   2.371       .  S
O271        H287   0.990       .  S
O272       Zr738   2.435       .  S
O272        H286   0.990       .  S
O272        H296   0.990       .  S
Zr273      O1172   2.423   1_465  S
Zr273       O733   2.423       .  S
Zr273      O1189   2.381   1_465  S
Zr273       O744   2.380       .  S
Zr273       O278   2.384   1_565  S
Zr273      O1683   2.383   1_455  S
Zr274       O707   2.425       .  S
Zr274      O1198   2.423       .  S
Zr274       O722   2.384       .  S
Zr274      O1211   2.385       .  S
Zr274       O277   2.380       .  S
Zr274      O1684   2.380       .  S
O275      Zr1210   2.385       .  S
O275        H283   0.966       .  S
O276       Zr741   2.380       .  S
O277       Zr715   2.372       .  S
O277      Zr1203   2.374       .  S
O278      Zr1186   2.373   1_455  S
O278       Zr738   2.371       .  S
O278        H282   0.966       .  S
O279       Zr715   2.372       .  S
O279      Zr1203   2.372       .  S
O279      Zr1677   2.383       .  S
O279        H284   0.966       .  S
O280      Zr1186   2.373   1_455  S
O280       Zr738   2.372       .  S
O280      Zr1678   2.380   1_545  S
O297       Zr309   2.447       .  S
O297        C299   1.287       .  A
O298       Zr335   2.420   1_655  S
O298       C1235   1.284       .  A
C299       O1234   1.284       .  A
C299        C465   1.435       .  S
O300       Zr312   2.443       .  S
O300        C302   1.287       .  A
O301       Zr336   2.424       .  S
O301        C302   1.285       .  A
C302        C424   1.435       .  S
O303       Zr312   2.443       .  S
O303        C305   1.287       .  A
O304      Zr1271   2.423       .  S
O304        C305   1.285       .  A
C305        C425   1.435       .  S
O306       Zr309   2.444       .  S
O306        C308   1.287       .  A
O307       Zr336   2.423       .  S
O307        C308   1.285       .  A
C308        C464   1.435       .  S
Zr309       O310   2.434       .  S
Zr309      O1247   2.436       .  S
Zr309       O315   2.373       .  S
Zr309       O316   2.373       .  S
Zr309      O1275   2.372       .  S
Zr309      O1277   2.372       .  S
O310        H353   0.990       .  S
O311      Zr1245   2.436       .  S
O311        H352   0.990       .  S
O311        H356   0.990       .  S
Zr312       O313   2.436       .  S
Zr312       O316   2.373       .  S
Zr312       O315   2.373       .  S
O313        H354   0.990       .  S
O313        H357   0.990       .  S
O314        H347   0.990       .  S
O315      Zr1271   2.381       .  S
O316       Zr336   2.385       .  S
O316        H343   0.966       .  S
O317        C319   1.287       .  A
O318      Zr1272   2.424       .  S
C319        C432   1.435       .  S
O320       Zr332   2.444   1_455  S
O320        C322   1.287       .  A
O321        C322   1.285       .  A
C322        C456   1.436       .  S
O323       Zr332   2.443       .  S
O323        C325   1.287       .  A
O324       C1261   1.285       .  A
C325       O1260   1.285       .  A
C325        C460   1.435       .  S
O326       Zr329   2.443       .  S
O327       Zr335   2.422       .  S
C328        C436   1.434       .  S
Zr329       O331   2.434       .  S
Zr329       O341   2.372       .  S
Zr329       O339   2.373       .  S
O330        H350   0.990       .  S
O330        H355   0.990       .  S
O331        H351   0.990       .  S
Zr332       O333   2.433   1_655  S
Zr332      O1270   2.434       .  S
Zr332       O338   2.373   1_655  S
Zr332       O337   2.373   1_655  S
Zr332      O1278   2.372       .  S
Zr332      O1276   2.370       .  S
O333        H349   0.990       .  S
O334      Zr1268   2.434       .  S
O334        H348   0.990       .  S
O334        H358   0.990       .  S
Zr335      O1240   2.423   1_455  S
Zr335      O1251   2.381   1_455  S
Zr335      O1042   2.382   1_455  S
Zr335       O341   2.384       .  S
Zr336      O1254   2.424       .  S
Zr336      O1039   2.385       .  S
Zr336      O1275   2.380       .  S
O337      Zr1038   2.385   1_556  S
O337        H345   0.966       .  S
O339      Zr1245   2.372       .  S
O339      Zr1272   2.380       .  S
O340      Zr1268   2.370       .  S
O340      Zr1037   2.382   1_556  S
O340        H344   0.966       .  S
O341      Zr1245   2.372       .  S
O341        H346   0.966       .  S
O342      Zr1268   2.372       .  S
O359       Zr371   2.446       .  S
O359        C361   1.287       .  A
O360       Zr865   2.421   1_545  S
O360        C361   1.284       .  A
C361        C428   1.435       .  S
O362       Zr374   2.443       .  S
O362        C832   1.287       .  A
O363       Zr398   2.425       .  S
O363        C364   1.285       .  A
C364        O830   1.287       .  A
C364        C445   1.435       .  S
O365       Zr374   2.443       .  S
O365        C835   1.287       .  A
O366       Zr397   2.424       .  S
O366        C835   1.285       .  A
C367        O833   1.287       .  A
C367        O834   1.285       .  A
C367        C449   1.435       .  S
O368       Zr371   2.444       .  S
O368        C370   1.287       .  A
O369       Zr398   2.421   1_545  S
O369        C370   1.284       .  A
C370        C433   1.434       .  S
Zr371       O372   2.434       .  S
Zr371       O377   2.373       .  S
Zr371       O378   2.373       .  S
O372        H415   0.990       .  S
O373        H414   0.990       .  S
O373        H418   0.990       .  S
Zr374       O843   2.436       .  S
Zr374       O376   2.435       .  S
Zr374       O846   2.373       .  S
Zr374       O845   2.373       .  S
Zr374       O402   2.372       .  S
Zr374       O404   2.372       .  S
O375       Zr842   2.436   1_545  S
O375        H416   0.990       .  S
O375        H419   0.990       .  S
O376        H409   0.990       .  S
O377       Zr842   2.373   1_545  S
O377       Zr865   2.381   1_545  S
O378       Zr842   2.373   1_545  S
O378       Zr398   2.384   1_545  S
O378        H405   0.966       .  S
O379       Zr391   2.444   1_545  S
O379        C849   1.287       .  A
O380        C849   1.285       .  A
C381        O847   1.287       .  A
C381        O848   1.285       .  A
C381        C441   1.435       .  S
O382       Zr394   2.443       .  S
O383       Zr397   2.423       .  S
C384        C421   1.435       .  S
O385       Zr394   2.443       .  S
O386       Zr866   2.424       .  S
C387        C429   1.435       .  S
O388       Zr391   2.443       .  S
O388        C858   1.287       .  A
O389        C390   1.285       .  A
C390        O856   1.287       .  A
C390        C437   1.434       .  S
Zr391       O860   2.435       .  S
Zr391       O393   2.434   1_565  S
Zr391       O867   2.372       .  S
Zr391       O868   2.372       .  S
Zr391       O403   2.373   1_565  S
Zr391       O401   2.373   1_565  S
O392       Zr859   2.435       .  S
O392        H412   0.990       .  S
O392        H417   0.990       .  S
O393        H413   0.990       .  S
Zr394       O396   2.434       .  S
Zr394       O404   2.372       .  S
Zr394       O402   2.370       .  S
O395        H411   0.990       .  S
O396        H410   0.990       .  S
O396        H420   0.990       .  S
Zr397       O828   2.421       .  S
Zr397       O845   2.381       .  S
Zr397       O402   2.382       .  S
Zr397       O637   2.384       .  S
Zr398       O854   2.424       .  S
Zr398       O633   2.385       .  S
Zr398       O872   2.379       .  S
O399       Zr859   2.372       .  S
O399       Zr632   2.385   1_556  S
O399        H407   0.966       .  S
O400       Zr859   2.372       .  S
O402        H406   0.966       .  S
O403       Zr631   2.384   1_546  S
O403        H408   0.966       .  S
O404       Zr866   2.380       .  S
C422        C423   1.412       .  S
C423        C424   1.206       .  T
C425        C426   1.206       .  T
C426        C427   1.412       .  S
C427        C428   1.206       .  T
C429        C430   1.206       .  T
C430        C431   1.412       .  S
C431        C432   1.206       .  T
C433        C434   1.205       .  T
C434        C435   1.411       .  S
C437        C438   1.205       .  T
C438        C907   1.411       .  S
C439        C440   1.205       .  T
C439        C906   1.411       .  S
C441        C442   1.206       .  T
C442        C443   1.412       .  S
C443        C444   1.206       .  T
C445        C446   1.206       .  T
C446        C915   1.412       .  S
C447        C448   1.206       .  T
C447        C914   1.412       .  S
C449        C450   1.206       .  T
C450        C451   1.412       .  S
C451        C452   1.206       .  T
C453        C454   1.206       .  T
C454       C1391   1.413       .  S
C455        C456   1.206       .  T
C455       C1390   1.413       .  S
C457        C458   1.206       .  T
C458        C459   1.412       .  S
C459        C460   1.206       .  T
C461        C462   1.206       .  T
C462       C1399   1.412       .  S
C463        C464   1.206       .  T
C463       C1398   1.412       .  S
C465        C466   1.205       .  T
C466        C467   1.412       .  S
C467        C468   1.205       .  T
O469       Zr481   2.444       .  S
O469        C471   1.287       .  A
O470      Zr1443   2.423       .  S
O470        C471   1.285       .  A
C471        C686   1.436       .  S
O472       Zr484   2.445       .  S
O472        C474   1.287       .  A
O473        C474   1.285       .  A
C474        C687   1.436       .  S
O475       Zr484   2.444       .  S
O475        C477   1.287       .  A
O476       Zr507   2.421   1_655  S
O476       C1413   1.284       .  A
C477       O1412   1.284       .  A
C477        C702   1.435       .  S
O478       Zr481   2.443       .  S
O478        C480   1.287       .  A
O479       Zr508   2.421       .  S
C480        C674   1.434       .  S
Zr481       O482   2.434       .  S
Zr481       O487   2.373       .  S
Zr481       O488   2.373       .  S
O482        H525   0.990       .  S
O483        H524   0.990       .  S
O483        H528   0.990       .  S
Zr484       O485   2.436       .  S
Zr484      O1422   2.435       .  S
Zr484       O488   2.373       .  S
Zr484       O487   2.373       .  S
Zr484      O1448   2.373       .  S
Zr484      O1450   2.373       .  S
O485        H526   0.990       .  S
O485        H529   0.990       .  S
O486      Zr1420   2.435   1_455  S
O486        H519   0.990       .  S
O487      Zr1443   2.381       .  S
O488        H515   0.966       .  S
O489       Zr501   2.444   1_655  S
O489        C491   1.287       .  A
O490       Zr508   2.423       .  S
O490       C1427   1.285       .  A
C491       O1426   1.285       .  A
C491        C691   1.435       .  S
O492       Zr504   2.443   1_565  S
O492        C494   1.287       .  A
O493       Zr507   2.423       .  S
C494        C682   1.435       .  S
O495       Zr504   2.444       .  S
O495        C497   1.287       .  A
O496      Zr1444   2.423   1_545  S
O496        C497   1.285       .  A
C497        C678   1.435       .  S
O498       Zr501   2.444       .  S
O498        C500   1.287       .  A
O499        C500   1.285       .  A
C500        C695   1.435       .  S
Zr501       O502   2.436       .  S
Zr501      O1439   2.434   1_455  S
Zr501       O509   2.373       .  S
Zr501       O510   2.371       .  S
Zr501      O1449   2.372   1_455  S
Zr501      O1447   2.373   1_455  S
O502        H522   0.990       .  S
O502        H527   0.990       .  S
O503      Zr1437   2.434       .  S
O503        H523   0.990       .  S
Zr504       O505   2.434   1_545  S
Zr504       O510   2.373   1_545  S
Zr504       O509   2.372   1_545  S
O505        H521   0.990       .  S
O506        H520   0.990       .  S
O506        H530   0.990       .  S
Zr507      O1406   2.423   1_455  S
Zr507      O1423   2.381   1_455  S
Zr507       O512   2.384       .  S
Zr507       O981   2.383   1_455  S
Zr508      O1432   2.423   1_565  S
Zr508      O1445   2.384       .  S
Zr508       O511   2.380       .  S
Zr508       O982   2.380   1_565  S
O509      Zr1444   2.384       .  S
O509        H517   0.966       .  S
O511      Zr1437   2.373       .  S
O512      Zr1420   2.373   1_455  S
O512        H516   0.966       .  S
O513      Zr1437   2.372       .  S
O513       Zr975   2.383       .  S
O513        H518   0.966       .  S
O514      Zr1420   2.373   1_455  S
O514       Zr976   2.380       .  S
O531       Zr543   2.447       .  S
O531        C533   1.287       .  A
O532       Zr569   2.420   1_655  S
O532       C1469   1.284       .  A
C533       O1468   1.284       .  A
C533        C699   1.435       .  S
O534       Zr546   2.443   1_556  S
O534        C536   1.287       .  A
O535       Zr570   2.424       .  S
O535        C536   1.285   1_554  A
C536        C658   1.435       .  S
O537       Zr546   2.443       .  S
O537        C539   1.287       .  A
O538      Zr1505   2.423       .  S
O538        C539   1.285       .  A
C539        C659   1.435       .  S
O540       Zr543   2.444       .  S
O540        C542   1.287       .  A
O541       Zr570   2.423       .  S
O541        C542   1.285       .  A
C542        C698   1.435       .  S
Zr543       O544   2.434       .  S
Zr543      O1481   2.435       .  S
Zr543       O549   2.372       .  S
Zr543       O550   2.373       .  S
Zr543      O1509   2.372       .  S
Zr543      O1511   2.371       .  S
O544        H587   0.990       .  S
O545      Zr1479   2.435       .  S
O545        H586   0.990       .  S
O545        H590   0.990       .  S
Zr546       O547   2.436       .  S
Zr546       O782   2.435   1_554  S
Zr546       O550   2.373       .  S
Zr546       O549   2.373       .  S
Zr546       O808   2.373   1_554  S
Zr546       O810   2.372   1_554  S
O547        H588   0.990       .  S
O547        H591   0.990       .  S
O548       Zr780   2.435       .  S
O548        H581   0.990       .  S
O549      Zr1505   2.381       .  S
O550       Zr570   2.385       .  S
O550        H577   0.966       .  S
O551       Zr797   2.444       .  S
O551        C553   1.287       .  A
O552      Zr1506   2.424       .  S
O552        C787   1.285       .  A
C553        O786   1.285       .  A
C553        C666   1.435       .  S
O554       Zr566   2.444   1_455  S
O554        C556   1.287       .  A
O555       Zr803   2.423       .  S
O555        C556   1.285       .  A
C556        C690   1.436       .  S
O557       Zr566   2.444       .  S
O557        C559   1.287       .  A
O558       Zr804   2.424       .  S
O558       C1495   1.285       .  A
C559       O1494   1.285       .  A
C559        C694   1.435       .  S
O560       Zr563   2.443   1_556  S
O560        C796   1.287       .  A
O561       Zr569   2.422       .  S
O561        C796   1.284   1_554  A
C562        O794   1.287       .  A
C562        O795   1.284       .  A
C562        C670   1.434       .  S
Zr563       O785   2.444       .  S
Zr563       O798   2.436   1_554  S
Zr563       O565   2.434       .  S
Zr563       O805   2.372   1_554  S
Zr563       O806   2.372   1_554  S
Zr563       O575   2.372       .  S
Zr563       O573   2.373       .  S
O564       Zr797   2.436       .  S
O564        H584   0.990       .  S
O564        H589   0.990       .  S
O565        H585   0.990       .  S
Zr566       O567   2.433   1_655  S
Zr566      O1504   2.434       .  S
Zr566       O572   2.372   1_655  S
Zr566       O571   2.373   1_655  S
Zr566      O1512   2.372       .  S
Zr566      O1510   2.371       .  S
O567        H583   0.990       .  S
O568      Zr1502   2.434       .  S
O568        H582   0.990       .  S
O568        H592   0.990       .  S
Zr569      O1474   2.423   1_455  S
Zr569       O789   2.423   1_554  S
Zr569      O1485   2.381   1_455  S
Zr569       O806   2.380   1_554  S
Zr569      O1744   2.383   1_454  S
Zr569       O575   2.383       .  S
Zr570      O1488   2.424       .  S
Zr570       O792   2.424   1_554  S
Zr570      O1741   2.385   1_554  S
Zr570      O1509   2.380       .  S
Zr570       O810   2.380   1_554  S
O571       Zr797   2.372       .  S
O571      Zr1740   2.385       .  S
O571        H579   0.966       .  S
O572       Zr797   2.372       .  S
O572       Zr803   2.380       .  S
O573      Zr1479   2.372       .  S
O573      Zr1506   2.380       .  S
O574       Zr780   2.373       .  S
O574      Zr1502   2.371       .  S
O574      Zr1739   2.383       .  S
O574        H578   0.966       .  S
O575      Zr1479   2.371       .  S
O575        H580   0.966       .  S
O576       Zr780   2.372       .  S
O576      Zr1502   2.372       .  S
O576       Zr804   2.380       .  S
O593       Zr605   2.446       .  S
O593        C595   1.287       .  A
O594        C595   1.284       .  A
C595        C662   1.435       .  S
O596       Zr608   2.443       .  S
O597       Zr632   2.424       .  S
O597        C598   1.285       .  A
C598        C679   1.435       .  S
O599       Zr608   2.443   1_545  S
O600       Zr631   2.424   1_545  S
C601        C683   1.436       .  S
O602       Zr605   2.444   1_556  S
O602        C604   1.287       .  A
O603       Zr632   2.421   1_556  S
O603        C604   1.284       .  A
C604        C667   1.434       .  S
Zr605       O606   2.434       .  S
Zr605       O841   2.436   1_554  S
Zr605       O611   2.373       .  S
Zr605       O612   2.373       .  S
Zr605       O869   2.372   1_554  S
Zr605       O871   2.372   1_554  S
O606        H649   0.990       .  S
O607       Zr839   2.436       .  S
O607        H648   0.990       .  S
O607        H652   0.990       .  S
Zr608       O610   2.435       .  S
Zr608       O636   2.372       .  S
Zr608       O638   2.372       .  S
O609        H650   0.990       .  S
O609        H653   0.990       .  S
O610        H643   0.990       .  S
O612       Zr632   2.384       .  S
O612        H639   0.966       .  S
O613       Zr625   2.444       .  S
O614       Zr866   2.423       .  S
C615        C675   1.435       .  S
O616       Zr628   2.443   1_556  S
O616        C852   1.287       .  A
O617       Zr631   2.423       .  S
O617        C852   1.285   1_554  A
C618        O850   1.287       .  A
C618        O851   1.285       .  A
C618        C655   1.435       .  S
O619       Zr628   2.443       .  S
O619        C855   1.287       .  A
O620        C855   1.285       .  A
C621        O853   1.287       .  A
C621        O854   1.285       .  A
C621        C663   1.435       .  S
O622       Zr625   2.442       .  S
O623       Zr865   2.422       .  S
O623        C624   1.285       .  A
C624        C671   1.434       .  S
Zr625       O627   2.434       .  S
Zr625       O637   2.372       .  S
Zr625       O635   2.373       .  S
O626        H646   0.990       .  S
O626        H651   0.990       .  S
O627        H647   0.990       .  S
Zr628       O863   2.433   1_554  S
Zr628       O630   2.434       .  S
Zr628       O868   2.373   1_554  S
Zr628       O867   2.373   1_554  S
Zr628       O638   2.372       .  S
Zr628       O636   2.370       .  S
O629       Zr862   2.433       .  S
O629        H645   0.990       .  S
O630        H644   0.990       .  S
O630        H654   0.990       .  S
Zr631       O857   2.422   1_554  S
Zr631       O868   2.380   1_554  S
Zr631       O636   2.382       .  S
Zr632       O848   2.423   1_554  S
Zr632       O869   2.381   1_554  S
O633       Zr862   2.373       .  S
O633        H641   0.966       .  S
O634       Zr862   2.373       .  S
O634       Zr865   2.380       .  S
O635       Zr839   2.372       .  S
O635       Zr866   2.381       .  S
O636        H640   0.966       .  S
O637       Zr839   2.372       .  S
O637        H642   0.966       .  S
C655        C890   1.206       .  T
C656        C889   1.206       .  T
C656        C657   1.412       .  S
C657        C658   1.206       .  T
C659        C660   1.206       .  T
C660        C661   1.412       .  S
C661        C662   1.206       .  T
C663        C664   1.206       .  T
C664        C665   1.412       .  S
C665        C666   1.206       .  T
C667        C668   1.205       .  T
C668        C669   1.411       .  S
C669        C904   1.205       .  T
C670        C903   1.205       .  T
C671        C672   1.205       .  T
C673        C674   1.205       .  T
C675        C676   1.206       .  T
C676        C677   1.412       .  S
C677        C678   1.206       .  T
C679        C680   1.206       .  T
C681        C682   1.206       .  T
C683        C684   1.206       .  T
C684        C685   1.413       .  S
C685        C686   1.206       .  T
C687        C688   1.206       .  T
C688       C1625   1.413       .  S
C689        C690   1.206       .  T
C689       C1624   1.413       .  S
C691        C692   1.206       .  T
C692        C693   1.412       .  S
C693        C694   1.206       .  T
C695        C696   1.206       .  T
C696       C1633   1.412       .  S
C697        C698   1.206       .  T
C697       C1632   1.412       .  S
C699        C700   1.206       .  T
C700        C701   1.412       .  S
C701        C702   1.205       .  T
O703       Zr715   2.444       .  S
O703        C705   1.287       .  A
O704      Zr1677   2.423       .  S
O704        C705   1.285       .  A
C705        C920   1.436       .  S
O706       Zr718   2.445       .  S
O706        C708   1.287       .  A
O707        C708   1.285       .  A
C708        C921   1.436       .  S
O709       Zr718   2.444       .  S
O709        C711   1.287       .  A
O710       Zr741   2.421   1_655  S
O710       C1647   1.284       .  A
C711       O1646   1.284       .  A
C711        C936   1.435       .  S
O712       Zr715   2.443       .  S
O712        C714   1.287       .  A
O713       Zr742   2.421       .  S
C714        C908   1.434       .  S
Zr715       O716   2.434       .  S
Zr715       O721   2.372       .  S
Zr715       O722   2.373       .  S
O716        H759   0.990       .  S
O717        H758   0.990       .  S
O717        H762   0.990       .  S
Zr718       O719   2.436       .  S
Zr718      O1656   2.435       .  S
Zr718       O722   2.373       .  S
Zr718       O721   2.373       .  S
Zr718      O1682   2.373       .  S
Zr718      O1684   2.373       .  S
O719        H760   0.990       .  S
O719        H763   0.990       .  S
O720      Zr1654   2.435   1_455  S
O720        H753   0.990       .  S
O721      Zr1677   2.381       .  S
O722        H749   0.966       .  S
O723       Zr735   2.444   1_655  S
O723        C725   1.287       .  A
O724       Zr742   2.423       .  S
O724       C1661   1.285       .  A
C725       O1660   1.285       .  A
C725        C925   1.435       .  S
O726       Zr738   2.443   1_565  S
O726        C728   1.287       .  A
O727       Zr741   2.423       .  S
C728        C916   1.435       .  S
O729       Zr738   2.444       .  S
O729        C731   1.287       .  A
O730      Zr1678   2.423   1_545  S
O730        C731   1.285       .  A
C731        C912   1.435       .  S
O732       Zr735   2.444       .  S
O732        C734   1.287       .  A
O733        C734   1.285       .  A
C734        C929   1.435       .  S
Zr735       O736   2.436       .  S
Zr735      O1673   2.434   1_455  S
Zr735       O743   2.373       .  S
Zr735       O744   2.371       .  S
Zr735      O1683   2.372   1_455  S
Zr735      O1681   2.373   1_455  S
O736        H756   0.990       .  S
O736        H761   0.990       .  S
O737      Zr1671   2.434       .  S
O737        H757   0.990       .  S
Zr738       O739   2.434   1_545  S
Zr738       O744   2.373   1_545  S
Zr738       O743   2.372   1_545  S
O739        H755   0.990       .  S
O740        H754   0.990       .  S
O740        H764   0.990       .  S
Zr741      O1640   2.423   1_455  S
Zr741      O1657   2.381   1_455  S
Zr741       O746   2.384       .  S
Zr741      O1215   2.383   1_455  S
Zr742      O1666   2.423   1_565  S
Zr742      O1679   2.384       .  S
Zr742       O745   2.380       .  S
Zr742      O1216   2.380   1_565  S
O743      Zr1678   2.384       .  S
O743        H751   0.966       .  S
O745      Zr1671   2.373       .  S
O746      Zr1654   2.373   1_455  S
O746        H750   0.966       .  S
O747      Zr1671   2.372       .  S
O747      Zr1209   2.383       .  S
O747        H752   0.966       .  S
O748      Zr1654   2.373   1_455  S
O748      Zr1210   2.380       .  S
O765       Zr777   2.447       .  S
O765        C767   1.287       .  A
O766       Zr803   2.420   1_655  S
O766       C1703   1.284       .  A
C767       O1702   1.284       .  A
C767        C933   1.435       .  S
O768       Zr780   2.443       .  S
O768        C770   1.287       .  A
O769       Zr804   2.424       .  S
O769        C770   1.285       .  A
C770        C892   1.435       .  S
O771       Zr780   2.443       .  S
O771        C773   1.287       .  A
O772      Zr1739   2.423       .  S
O772        C773   1.285       .  A
C773        C893   1.435       .  S
O774       Zr777   2.444       .  S
O774        C776   1.287       .  A
O775       Zr804   2.423       .  S
O775        C776   1.285       .  A
C776        C932   1.435       .  S
Zr777       O778   2.434       .  S
Zr777      O1715   2.435       .  S
Zr777       O783   2.372       .  S
Zr777       O784   2.373       .  S
Zr777      O1743   2.372       .  S
Zr777      O1745   2.371       .  S
O778        H821   0.990       .  S
O779      Zr1713   2.435       .  S
O779        H820   0.990       .  S
O779        H824   0.990       .  S
Zr780       O781   2.436       .  S
Zr780       O784   2.373       .  S
Zr780       O783   2.373       .  S
O781        H822   0.990       .  S
O781        H825   0.990       .  S
O782        H815   0.990       .  S
O783      Zr1739   2.381       .  S
O784       Zr804   2.385       .  S
O784        H811   0.966       .  S
O785        C787   1.287       .  A
O786      Zr1740   2.424       .  S
C787        C900   1.435       .  S
O788       Zr800   2.444   1_455  S
O788        C790   1.287       .  A
O789        C790   1.285       .  A
C790        C924   1.436       .  S
O791       Zr800   2.444       .  S
O791        C793   1.287       .  A
O792       C1729   1.285       .  A
C793       O1728   1.285       .  A
C793        C928   1.435       .  S
O794       Zr797   2.443       .  S
O795       Zr803   2.422       .  S
C796        C904   1.434       .  S
Zr797       O799   2.434       .  S
Zr797       O809   2.372       .  S
Zr797       O807   2.373       .  S
O798        H818   0.990       .  S
O798        H823   0.990       .  S
O799        H819   0.990       .  S
Zr800       O801   2.433   1_655  S
Zr800      O1738   2.434       .  S
Zr800       O806   2.372   1_655  S
Zr800       O805   2.373   1_655  S
Zr800      O1746   2.372       .  S
Zr800      O1744   2.371       .  S
O801        H817   0.990       .  S
O802      Zr1736   2.434       .  S
O802        H816   0.990       .  S
O802        H826   0.990       .  S
Zr803      O1708   2.423   1_455  S
Zr803      O1719   2.381   1_455  S
Zr803      O1510   2.383   1_455  S
Zr803       O809   2.383       .  S
Zr804      O1722   2.424       .  S
Zr804      O1507   2.385       .  S
Zr804      O1743   2.380       .  S
O805      Zr1506   2.385   1_556  S
O805        H813   0.966       .  S
O807      Zr1713   2.372       .  S
O807      Zr1740   2.380       .  S
O808      Zr1736   2.371       .  S
O808      Zr1505   2.383   1_556  S
O808        H812   0.966       .  S
O809      Zr1713   2.371       .  S
O809        H814   0.966       .  S
O810      Zr1736   2.372       .  S
O827       Zr839   2.446       .  S
O827        C829   1.287       .  A
O828        C829   1.284       .  A
C829        C896   1.435       .  S
O830       Zr842   2.443       .  S
O831       Zr866   2.424       .  S
O831        C832   1.285       .  A
C832        C913   1.435       .  S
O833       Zr842   2.443   1_545  S
O834       Zr865   2.424   1_545  S
C835        C917   1.436       .  S
O836       Zr839   2.444       .  S
O836        C838   1.287       .  A
O837       Zr866   2.421       .  S
O837        C838   1.284       .  A
C838        C901   1.434       .  S
Zr839       O840   2.434       .  S
Zr839       O845   2.373       .  S
Zr839       O846   2.373       .  S
O840        H883   0.990       .  S
O841        H882   0.990       .  S
O841        H886   0.990       .  S
Zr842       O844   2.435       .  S
Zr842       O870   2.372       .  S
Zr842       O872   2.372       .  S
O843        H884   0.990       .  S
O843        H887   0.990       .  S
O844        H877   0.990       .  S
O846       Zr866   2.384       .  S
O846        H873   0.966       .  S
O847       Zr859   2.444       .  S
C849        C909   1.435       .  S
O850       Zr862   2.443       .  S
O851       Zr865   2.423       .  S
C852        C889   1.435       .  S
O853       Zr862   2.443       .  S
C855        C897   1.435       .  S
O856       Zr859   2.442       .  S
O857        C858   1.285       .  A
C858        C905   1.434       .  S
Zr859       O861   2.434       .  S
Zr859       O871   2.372       .  S
Zr859       O869   2.373       .  S
O860        H880   0.990       .  S
O860        H885   0.990       .  S
O861        H881   0.990       .  S
Zr862       O864   2.434       .  S
Zr862       O872   2.372       .  S
Zr862       O870   2.370       .  S
O863        H879   0.990       .  S
O864        H878   0.990       .  S
O864        H888   0.990       .  S
Zr865       O870   2.382       .  S
O867        H875   0.966       .  S
O870        H874   0.966       .  S
O871        H876   0.966       .  S
C890        C891   1.412       .  S
C891        C892   1.206       .  T
C893        C894   1.206       .  T
C894        C895   1.412       .  S
C895        C896   1.206       .  T
C897        C898   1.206       .  T
C898        C899   1.412       .  S
C899        C900   1.206       .  T
C901        C902   1.205       .  T
C902        C903   1.411       .  S
C905        C906   1.205       .  T
C907        C908   1.205       .  T
C909        C910   1.206       .  T
C910        C911   1.412       .  S
C911        C912   1.206       .  T
C913        C914   1.206       .  T
C915        C916   1.206       .  T
C917        C918   1.206       .  T
C918        C919   1.413       .  S
C919        C920   1.206       .  T
C921        C922   1.206       .  T
C922       C1859   1.413       .  S
C923        C924   1.206       .  T
C923       C1858   1.413       .  S
C925        C926   1.206       .  T
C926        C927   1.412       .  S
C927        C928   1.206       .  T
C929        C930   1.206       .  T
C930       C1867   1.412       .  S
C931        C932   1.206       .  T
C931       C1866   1.412       .  S
C933        C934   1.206       .  T
C934        C935   1.412       .  S
C935        C936   1.205       .  T
O937       Zr949   2.445   1_545  S
O937        C939   1.287       .  A
O938        C939   1.285       .  A
C939       C1154   1.436       .  S
O940       Zr952   2.444   1_455  S
O940        C942   1.287       .  A
O941      Zr1444   2.424   1_545  S
O941        C942   1.285       .  A
C942       C1155   1.436       .  S
O943       Zr952   2.444       .  S
O943        C945   1.287       .  A
O944       Zr975   2.421   1_545  S
C945       C1170   1.435       .  S
O946       Zr949   2.443       .  S
O946        C948   1.287       .  A
O947       Zr976   2.423   1_655  S
O947       C1416   1.285       .  A
C948       O1415   1.284       .  A
C948       C1142   1.434       .  S
Zr949       O950   2.434   1_565  S
Zr949      O1419   2.435       .  S
Zr949       O955   2.372   1_565  S
Zr949       O956   2.373   1_565  S
Zr949      O1447   2.372       .  S
Zr949      O1449   2.372       .  S
O950        H993   0.990       .  S
O951      Zr1417   2.436       .  S
O951        H992   0.990       .  S
O951        H996   0.990       .  S
Zr952       O953   2.436       .  S
Zr952       O956   2.372       .  S
Zr952       O955   2.373       .  S
O953        H994   0.990       .  S
O953        H997   0.990       .  S
O954        H987   0.990       .  S
O956      Zr1444   2.384   1_645  S
O956        H983   0.966       .  S
O957       Zr969   2.444       .  S
O957        C959   1.287       .  A
O958       Zr976   2.424   1_655  S
C959       C1159   1.435       .  S
O960       Zr972   2.443       .  S
O960        C962   1.287       .  A
O961       Zr975   2.423       .  S
O961       C1430   1.285       .  A
C962       O1429   1.285       .  A
C962       C1150   1.435       .  S
O963       Zr972   2.444       .  S
O963        C965   1.287       .  A
O964        C965   1.285       .  A
C965       C1146   1.435       .  S
O966       Zr969   2.444       .  S
O966        C968   1.287       .  A
O967      Zr1443   2.423       .  S
O967        C968   1.285       .  A
C968       C1163   1.436       .  S
Zr969       O970   2.435       .  S
Zr969       O977   2.373       .  S
Zr969       O978   2.371       .  S
O970        H990   0.990       .  S
O970        H995   0.990       .  S
O971        H991   0.990       .  S
Zr972       O973   2.434       .  S
Zr972      O1442   2.435       .  S
Zr972       O978   2.373       .  S
Zr972       O977   2.372       .  S
Zr972      O1450   2.372       .  S
Zr972      O1448   2.371       .  S
O973        H989   0.990       .  S
O974      Zr1440   2.435       .  S
O974        H988   0.990       .  S
O974        H998   0.990       .  S
Zr975      O1435   2.423       .  S
Zr975      O1446   2.380       .  S
Zr975       O980   2.384   1_565  S
Zr976      O1409   2.425       .  S
Zr976      O1424   2.384   1_455  S
Zr976       O979   2.380   1_455  S
O977        H985   0.966       .  S
O978      Zr1443   2.380       .  S
O979      Zr1417   2.372       .  S
O980      Zr1440   2.371       .  S
O980        H984   0.966       .  S
O981      Zr1417   2.372       .  S
O981        H986   0.966       .  S
O982      Zr1440   2.372       .  S
O999      Zr1011   2.447   1_655  S
O999       C1001   1.287       .  A
O1000     Zr1037   2.420       .  S
C1001      C1167   1.435       .  S
O1002     Zr1014   2.443   1_556  S
O1002      C1004   1.287       .  A
O1003     Zr1038   2.424   1_655  S
O1003      C1004   1.285   1_554  A
C1004      C1126   1.435       .  S
O1005     Zr1014   2.443       .  S
O1005      C1007   1.287       .  A
O1006      C1007   1.285       .  A
C1007      C1127   1.435       .  S
O1008     Zr1011   2.444       .  S
O1008      C1010   1.287       .  A
O1009     Zr1038   2.423       .  S
O1009      C1010   1.285       .  A
C1010      C1166   1.435       .  S
Zr1011     O1012   2.434   1_455  S
Zr1011     O1017   2.373   1_455  S
Zr1011     O1018   2.373   1_455  S
O1012      H1055   0.990       .  S
O1013      H1054   0.990       .  S
O1013      H1058   0.990       .  S
Zr1014     O1015   2.436       .  S
Zr1014     O1250   2.435   1_554  S
Zr1014     O1018   2.373       .  S
Zr1014     O1017   2.373       .  S
Zr1014     O1276   2.373   1_554  S
Zr1014     O1278   2.372   1_554  S
O1015      H1056   0.990       .  S
O1015      H1059   0.990       .  S
O1016     Zr1248   2.435       .  S
O1016      H1049   0.990       .  S
O1018     Zr1038   2.385   1_655  S
O1018      H1045   0.966       .  S
O1019     Zr1265   2.444       .  S
O1019      C1021   1.287       .  A
O1020      C1255   1.285       .  A
C1021      O1254   1.285       .  A
C1021      C1134   1.435       .  S
O1022     Zr1034   2.444       .  S
O1022      C1024   1.287       .  A
O1023     Zr1271   2.423       .  S
O1023      C1024   1.285       .  A
C1024      C1158   1.436       .  S
O1025     Zr1034   2.443       .  S
O1025      C1027   1.287       .  A
O1026     Zr1272   2.424   1_655  S
C1027      C1162   1.435       .  S
O1028     Zr1031   2.443   1_556  S
O1028      C1264   1.287       .  A
O1029     Zr1037   2.422       .  S
O1029      C1264   1.285   1_554  A
C1030      O1262   1.287       .  A
C1030      O1263   1.285       .  A
C1030      C1138   1.434       .  S
Zr1031     O1253   2.444       .  S
Zr1031     O1266   2.436   1_554  S
Zr1031     O1033   2.434       .  S
Zr1031     O1273   2.372   1_554  S
Zr1031     O1274   2.372   1_554  S
Zr1031     O1043   2.372       .  S
Zr1031     O1041   2.373       .  S
O1032     Zr1265   2.436       .  S
O1032      H1052   0.990       .  S
O1032      H1057   0.990       .  S
O1033      H1053   0.990       .  S
Zr1034     O1035   2.433       .  S
Zr1034     O1040   2.373       .  S
Zr1034     O1039   2.373       .  S
O1035      H1051   0.990       .  S
O1036      H1050   0.990       .  S
O1036      H1060   0.990       .  S
Zr1037     O1257   2.423   1_554  S
Zr1037     O1274   2.380   1_554  S
Zr1037     O1043   2.384       .  S
Zr1038     O1260   2.424   1_454  S
Zr1038     O1278   2.380   1_454  S
O1039     Zr1265   2.372       .  S
O1039      H1047   0.966       .  S
O1040     Zr1265   2.372       .  S
O1040     Zr1271   2.380       .  S
O1042     Zr1248   2.373       .  S
O1042      H1046   0.966       .  S
O1043      H1048   0.966       .  S
O1044     Zr1248   2.372       .  S
O1044     Zr1272   2.380   1_655  S
O1061     Zr1073   2.446       .  S
O1061      C1063   1.287       .  A
O1062     Zr1567   2.421   1_545  S
O1062      C1063   1.284       .  A
C1063      C1130   1.435       .  S
O1064     Zr1076   2.443       .  S
O1064      C1534   1.287       .  A
O1065     Zr1100   2.425       .  S
O1065      C1066   1.285       .  A
C1066      O1532   1.287       .  A
C1066      C1147   1.435       .  S
O1067     Zr1076   2.443       .  S
O1067      C1537   1.287       .  A
O1068     Zr1099   2.424       .  S
O1068      C1537   1.285       .  A
C1069      O1535   1.287       .  A
C1069      O1536   1.285       .  A
C1069      C1151   1.435       .  S
O1070     Zr1073   2.444   1_556  S
O1070      C1072   1.287       .  A
O1071     Zr1100   2.421   1_546  S
O1071      C1072   1.284       .  A
C1072      C1135   1.434       .  S
Zr1073     O1074   2.434       .  S
Zr1073     O1309   2.436   1_554  S
Zr1073     O1079   2.373       .  S
Zr1073     O1080   2.373       .  S
Zr1073     O1337   2.372   1_554  S
Zr1073     O1339   2.371   1_554  S
O1074      H1117   0.990       .  S
O1075     Zr1307   2.436       .  S
O1075      H1116   0.990       .  S
O1075      H1120   0.990       .  S
Zr1076     O1545   2.436       .  S
Zr1076     O1078   2.435       .  S
Zr1076     O1548   2.373       .  S
Zr1076     O1547   2.373       .  S
Zr1076     O1104   2.372       .  S
Zr1076     O1106   2.372       .  S
O1077     Zr1544   2.436   1_545  S
O1077      H1118   0.990       .  S
O1077      H1121   0.990       .  S
O1078      H1111   0.990       .  S
O1079     Zr1544   2.373   1_545  S
O1079     Zr1567   2.381   1_545  S
O1080     Zr1544   2.373   1_545  S
O1080     Zr1100   2.384   1_545  S
O1080      H1107   0.966       .  S
O1081     Zr1093   2.444   1_545  S
O1081      C1551   1.287       .  A
O1082     Zr1334   2.423   1_545  S
O1082      C1551   1.285       .  A
C1083      O1549   1.287       .  A
C1083      O1550   1.285       .  A
C1083      C1143   1.435       .  S
O1084     Zr1096   2.443   1_556  S
O1084      C1320   1.287       .  A
O1085     Zr1099   2.423       .  S
O1085      C1320   1.285   1_554  A
C1086      O1318   1.287       .  A
C1086      O1319   1.285       .  A
C1086      C1123   1.435       .  S
O1087     Zr1096   2.443       .  S
O1087      C1323   1.287       .  A
O1088     Zr1568   2.424       .  S
O1088      C1323   1.285       .  A
C1089      O1321   1.287       .  A
C1089      O1322   1.285       .  A
C1089      C1131   1.435       .  S
O1090     Zr1093   2.443       .  S
O1090      C1560   1.287       .  A
O1091     Zr1333   2.423       .  S
O1091      C1092   1.285       .  A
C1092      O1558   1.287       .  A
C1092      C1139   1.434       .  S
Zr1093     O1562   2.435       .  S
Zr1093     O1095   2.434   1_565  S
Zr1093     O1569   2.372       .  S
Zr1093     O1570   2.372       .  S
Zr1093     O1105   2.373   1_565  S
Zr1093     O1103   2.373   1_565  S
O1094     Zr1561   2.435       .  S
O1094      H1114   0.990       .  S
O1094      H1119   0.990       .  S
O1095      H1115   0.990       .  S
Zr1096     O1331   2.434   1_554  S
Zr1096     O1098   2.434       .  S
Zr1096     O1336   2.373   1_554  S
Zr1096     O1335   2.373   1_554  S
Zr1096     O1106   2.372       .  S
Zr1096     O1104   2.370       .  S
O1097     Zr1330   2.434       .  S
O1097      H1113   0.990       .  S
O1098      H1112   0.990       .  S
O1098      H1122   0.990       .  S
Zr1099     O1530   2.421       .  S
Zr1099     O1325   2.423   1_554  S
Zr1099     O1547   2.381       .  S
Zr1099     O1336   2.380   1_554  S
Zr1099     O1104   2.382       .  S
Zr1099     O1807   2.384   1_554  S
Zr1100     O1316   2.423   1_564  S
Zr1100     O1556   2.424       .  S
Zr1100     O1803   2.385   1_554  S
Zr1100     O1337   2.381   1_564  S
Zr1100     O1574   2.379       .  S
O1101     Zr1561   2.372       .  S
O1101     Zr1330   2.373       .  S
O1101     Zr1802   2.385       .  S
O1101      H1109   0.966       .  S
O1102     Zr1561   2.372       .  S
O1102     Zr1330   2.373       .  S
O1102     Zr1333   2.380       .  S
O1103     Zr1307   2.372       .  S
O1103     Zr1334   2.381   1_545  S
O1104      H1108   0.966       .  S
O1105     Zr1307   2.371       .  S
O1105     Zr1801   2.384   1_545  S
O1105      H1110   0.966       .  S
O1106     Zr1568   2.380       .  S
C1123      C1358   1.206       .  T
C1124      C1357   1.206       .  T
C1124      C1125   1.412       .  S
C1125      C1126   1.206       .  T
C1127      C1128   1.206       .  T
C1128      C1129   1.412       .  S
C1129      C1130   1.206       .  T
C1131      C1132   1.206       .  T
C1132      C1133   1.412       .  S
C1133      C1134   1.206       .  T
C1135      C1136   1.205       .  T
C1136      C1137   1.411       .  S
C1137      C1372   1.205       .  T
C1138      C1371   1.205       .  T
C1139      C1140   1.205       .  T
C1140      C1609   1.411       .  S
C1141      C1142   1.205       .  T
C1141      C1608   1.411       .  S
C1143      C1144   1.206       .  T
C1144      C1145   1.412       .  S
C1145      C1146   1.206       .  T
C1147      C1148   1.206       .  T
C1148      C1617   1.412       .  S
C1149      C1150   1.206       .  T
C1149      C1616   1.412       .  S
C1151      C1152   1.206       .  T
C1152      C1153   1.412       .  S
C1153      C1154   1.206       .  T
C1155      C1156   1.206       .  T
C1157      C1158   1.206       .  T
C1159      C1160   1.206       .  T
C1160      C1161   1.412       .  S
C1161      C1162   1.206       .  T
C1163      C1164   1.206       .  T
C1165      C1166   1.206       .  T
C1167      C1168   1.205       .  T
C1168      C1169   1.412       .  S
C1169      C1170   1.205       .  T
O1171     Zr1183   2.445   1_545  S
O1171      C1173   1.287       .  A
O1172      C1173   1.285       .  A
C1173      C1388   1.436       .  S
O1174     Zr1186   2.444   1_455  S
O1174      C1176   1.287       .  A
O1175     Zr1678   2.424   1_545  S
O1175      C1176   1.285       .  A
C1176      C1389   1.436       .  S
O1177     Zr1186   2.444       .  S
O1177      C1179   1.287       .  A
O1178     Zr1209   2.421   1_545  S
C1179      C1404   1.435       .  S
O1180     Zr1183   2.443       .  S
O1180      C1182   1.287       .  A
O1181     Zr1210   2.423   1_655  S
O1181      C1650   1.285       .  A
C1182      O1649   1.284       .  A
C1182      C1376   1.434       .  S
Zr1183     O1184   2.434   1_565  S
Zr1183     O1653   2.435       .  S
Zr1183     O1189   2.372   1_565  S
Zr1183     O1190   2.373   1_565  S
Zr1183     O1681   2.372       .  S
Zr1183     O1683   2.372       .  S
O1184      H1227   0.990       .  S
O1185     Zr1651   2.436       .  S
O1185      H1226   0.990       .  S
O1185      H1230   0.990       .  S
Zr1186     O1187   2.436       .  S
Zr1186     O1190   2.372       .  S
Zr1186     O1189   2.373       .  S
O1187      H1228   0.990       .  S
O1187      H1231   0.990       .  S
O1188      H1221   0.990       .  S
O1190     Zr1678   2.384   1_645  S
O1190      H1217   0.966       .  S
O1191     Zr1203   2.444       .  S
O1191      C1193   1.287       .  A
O1192     Zr1210   2.424   1_655  S
C1193      C1393   1.435       .  S
O1194     Zr1206   2.443       .  S
O1194      C1196   1.287       .  A
O1195     Zr1209   2.423       .  S
O1195      C1664   1.285       .  A
C1196      O1663   1.285       .  A
C1196      C1384   1.435       .  S
O1197     Zr1206   2.444       .  S
O1197      C1199   1.287       .  A
O1198      C1199   1.285       .  A
C1199      C1380   1.435       .  S
O1200     Zr1203   2.444       .  S
O1200      C1202   1.287       .  A
O1201     Zr1677   2.423       .  S
O1201      C1202   1.285       .  A
C1202      C1397   1.436       .  S
Zr1203     O1204   2.435       .  S
Zr1203     O1211   2.373       .  S
Zr1203     O1212   2.371       .  S
O1204      H1224   0.990       .  S
O1204      H1229   0.990       .  S
O1205      H1225   0.990       .  S
Zr1206     O1207   2.434       .  S
Zr1206     O1676   2.435       .  S
Zr1206     O1212   2.373       .  S
Zr1206     O1211   2.372       .  S
Zr1206     O1684   2.372       .  S
Zr1206     O1682   2.371       .  S
O1207      H1223   0.990       .  S
O1208     Zr1674   2.435       .  S
O1208      H1222   0.990       .  S
O1208      H1232   0.990       .  S
Zr1209     O1669   2.423       .  S
Zr1209     O1680   2.380       .  S
Zr1209     O1214   2.384   1_565  S
Zr1210     O1643   2.425       .  S
Zr1210     O1658   2.384   1_455  S
Zr1210     O1213   2.380   1_455  S
O1211      H1219   0.966       .  S
O1212     Zr1677   2.380       .  S
O1213     Zr1651   2.372       .  S
O1214     Zr1674   2.371       .  S
O1214      H1218   0.966       .  S
O1215     Zr1651   2.372       .  S
O1215      H1220   0.966       .  S
O1216     Zr1674   2.372       .  S
O1233     Zr1245   2.447   1_655  S
O1233      C1235   1.287       .  A
O1234     Zr1271   2.420       .  S
C1235      C1401   1.435       .  S
O1236     Zr1248   2.443       .  S
O1236      C1238   1.287       .  A
O1237     Zr1272   2.424   1_655  S
O1237      C1238   1.285       .  A
C1238      C1360   1.435       .  S
O1239     Zr1248   2.443       .  S
O1239      C1241   1.287       .  A
O1240      C1241   1.285       .  A
C1241      C1361   1.435       .  S
O1242     Zr1245   2.444       .  S
O1242      C1244   1.287       .  A
O1243     Zr1272   2.423       .  S
O1243      C1244   1.285       .  A
C1244      C1400   1.435       .  S
Zr1245     O1246   2.434   1_455  S
Zr1245     O1251   2.373   1_455  S
Zr1245     O1252   2.373   1_455  S
O1246      H1289   0.990       .  S
O1247      H1288   0.990       .  S
O1247      H1292   0.990       .  S
Zr1248     O1249   2.436       .  S
Zr1248     O1252   2.373       .  S
Zr1248     O1251   2.373       .  S
O1249      H1290   0.990       .  S
O1249      H1293   0.990       .  S
O1250      H1283   0.990       .  S
O1252     Zr1272   2.385   1_655  S
O1252      H1279   0.966       .  S
O1253      C1255   1.287       .  A
C1255      C1368   1.435       .  S
O1256     Zr1268   2.444       .  S
O1256      C1258   1.287       .  A
O1257      C1258   1.285       .  A
C1258      C1392   1.436       .  S
O1259     Zr1268   2.443       .  S
O1259      C1261   1.287       .  A
C1261      C1396   1.435       .  S
O1262     Zr1265   2.443       .  S
O1263     Zr1271   2.422       .  S
C1264      C1372   1.434       .  S
Zr1265     O1267   2.434       .  S
Zr1265     O1277   2.372       .  S
Zr1265     O1275   2.373       .  S
O1266      H1286   0.990       .  S
O1266      H1291   0.990       .  S
O1267      H1287   0.990       .  S
Zr1268     O1269   2.433       .  S
Zr1268     O1274   2.373       .  S
Zr1268     O1273   2.373       .  S
O1269      H1285   0.990       .  S
O1270      H1284   0.990       .  S
O1270      H1294   0.990       .  S
Zr1271     O1277   2.384       .  S
O1273      H1281   0.966       .  S
O1276      H1280   0.966       .  S
O1277      H1282   0.966       .  S
O1295     Zr1307   2.446       .  S
O1295      C1297   1.287       .  A
O1296     Zr1801   2.421   1_545  S
O1296      C1297   1.284       .  A
C1297      C1364   1.435       .  S
O1298     Zr1310   2.443       .  S
O1298      C1768   1.287       .  A
O1299     Zr1334   2.425       .  S
O1299      C1300   1.285       .  A
C1300      O1766   1.287       .  A
C1300      C1381   1.435       .  S
O1301     Zr1310   2.443       .  S
O1301      C1771   1.287       .  A
O1302     Zr1333   2.424       .  S
O1302      C1771   1.285       .  A
C1303      O1769   1.287       .  A
C1303      O1770   1.285       .  A
C1303      C1385   1.435       .  S
O1304     Zr1307   2.444       .  S
O1304      C1306   1.287       .  A
O1305     Zr1334   2.421   1_545  S
O1305      C1306   1.284       .  A
C1306      C1369   1.434       .  S
Zr1307     O1308   2.434       .  S
Zr1307     O1313   2.373       .  S
Zr1307     O1314   2.373       .  S
O1308      H1351   0.990       .  S
O1309      H1350   0.990       .  S
O1309      H1354   0.990       .  S
Zr1310     O1779   2.436       .  S
Zr1310     O1312   2.435       .  S
Zr1310     O1782   2.373       .  S
Zr1310     O1781   2.373       .  S
Zr1310     O1338   2.372       .  S
Zr1310     O1340   2.372       .  S
O1311     Zr1778   2.436   1_545  S
O1311      H1352   0.990       .  S
O1311      H1355   0.990       .  S
O1312      H1345   0.990       .  S
O1313     Zr1778   2.373   1_545  S
O1313     Zr1801   2.381   1_545  S
O1314     Zr1778   2.373   1_545  S
O1314     Zr1334   2.384   1_545  S
O1314      H1341   0.966       .  S
O1315     Zr1327   2.444   1_545  S
O1315      C1785   1.287       .  A
O1316      C1785   1.285       .  A
C1317      O1783   1.287       .  A
C1317      O1784   1.285       .  A
C1317      C1377   1.435       .  S
O1318     Zr1330   2.443       .  S
O1319     Zr1333   2.423       .  S
C1320      C1357   1.435       .  S
O1321     Zr1330   2.443       .  S
O1322     Zr1802   2.424       .  S
C1323      C1365   1.435       .  S
O1324     Zr1327   2.443       .  S
O1324      C1794   1.287       .  A
O1325      C1326   1.285       .  A
C1326      O1792   1.287       .  A
C1326      C1373   1.434       .  S
Zr1327     O1796   2.435       .  S
Zr1327     O1329   2.434   1_565  S
Zr1327     O1803   2.372       .  S
Zr1327     O1804   2.372       .  S
Zr1327     O1339   2.373   1_565  S
Zr1327     O1337   2.373   1_565  S
O1328     Zr1795   2.435       .  S
O1328      H1348   0.990       .  S
O1328      H1353   0.990       .  S
O1329      H1349   0.990       .  S
Zr1330     O1332   2.434       .  S
Zr1330     O1340   2.372       .  S
Zr1330     O1338   2.370       .  S
O1331      H1347   0.990       .  S
O1332      H1346   0.990       .  S
O1332      H1356   0.990       .  S
Zr1333     O1764   2.421       .  S
Zr1333     O1781   2.381       .  S
Zr1333     O1338   2.382       .  S
Zr1333     O1573   2.384       .  S
Zr1334     O1790   2.424       .  S
Zr1334     O1569   2.385       .  S
Zr1334     O1808   2.379       .  S
O1335     Zr1795   2.372       .  S
O1335     Zr1568   2.385   1_556  S
O1335      H1343   0.966       .  S
O1336     Zr1795   2.372       .  S
O1338      H1342   0.966       .  S
O1339     Zr1567   2.384   1_546  S
O1339      H1344   0.966       .  S
O1340     Zr1802   2.380       .  S
C1358      C1359   1.412       .  S
C1359      C1360   1.206       .  T
C1361      C1362   1.206       .  T
C1362      C1363   1.412       .  S
C1363      C1364   1.206       .  T
C1365      C1366   1.206       .  T
C1366      C1367   1.412       .  S
C1367      C1368   1.206       .  T
C1369      C1370   1.205       .  T
C1370      C1371   1.411       .  S
C1373      C1374   1.205       .  T
C1374      C1843   1.411       .  S
C1375      C1376   1.205       .  T
C1375      C1842   1.411       .  S
C1377      C1378   1.206       .  T
C1378      C1379   1.412       .  S
C1379      C1380   1.206       .  T
C1381      C1382   1.206       .  T
C1382      C1851   1.412       .  S
C1383      C1384   1.206       .  T
C1383      C1850   1.412       .  S
C1385      C1386   1.206       .  T
C1386      C1387   1.412       .  S
C1387      C1388   1.206       .  T
C1389      C1390   1.206       .  T
C1391      C1392   1.206       .  T
C1393      C1394   1.206       .  T
C1394      C1395   1.412       .  S
C1395      C1396   1.206       .  T
C1397      C1398   1.206       .  T
C1399      C1400   1.206       .  T
C1401      C1402   1.205       .  T
C1402      C1403   1.412       .  S
C1403      C1404   1.205       .  T
O1405     Zr1417   2.444       .  S
O1405      C1407   1.287       .  A
O1406      C1407   1.285       .  A
C1407      C1622   1.436       .  S
O1408     Zr1420   2.445   1_455  S
O1408      C1410   1.287       .  A
O1409      C1410   1.285       .  A
C1410      C1623   1.436       .  S
O1411     Zr1420   2.444       .  S
O1411      C1413   1.287       .  A
O1412     Zr1443   2.421       .  S
C1413      C1638   1.435       .  S
O1414     Zr1417   2.443       .  S
O1414      C1416   1.287       .  A
O1415     Zr1444   2.421   1_655  S
C1416      C1610   1.434       .  S
Zr1417     O1418   2.434       .  S
Zr1417     O1423   2.372       .  S
Zr1417     O1424   2.373       .  S
O1418      H1461   0.990       .  S
O1419      H1460   0.990       .  S
O1419      H1464   0.990       .  S
Zr1420     O1421   2.436       .  S
Zr1420     O1424   2.373       .  S
Zr1420     O1423   2.373       .  S
O1421      H1462   0.990       .  S
O1421      H1465   0.990       .  S
O1422      H1455   0.990       .  S
O1424      H1451   0.966       .  S
O1425     Zr1437   2.444       .  S
O1425      C1427   1.287       .  A
O1426     Zr1444   2.423   1_655  S
C1427      C1627   1.435       .  S
O1428     Zr1440   2.443   1_565  S
O1428      C1430   1.287       .  A
O1429     Zr1443   2.423       .  S
C1430      C1618   1.435       .  S
O1431     Zr1440   2.444       .  S
O1431      C1433   1.287       .  A
O1432      C1433   1.285       .  A
C1433      C1614   1.435       .  S
O1434     Zr1437   2.444       .  S
O1434      C1436   1.287       .  A
O1435      C1436   1.285       .  A
C1436      C1631   1.435       .  S
Zr1437     O1438   2.436       .  S
Zr1437     O1445   2.373       .  S
Zr1437     O1446   2.371       .  S
O1438      H1458   0.990       .  S
O1438      H1463   0.990       .  S
O1439      H1459   0.990       .  S
Zr1440     O1441   2.434   1_545  S
Zr1440     O1446   2.373   1_545  S
Zr1440     O1445   2.372   1_545  S
O1441      H1457   0.990       .  S
O1442      H1456   0.990       .  S
O1442      H1466   0.990       .  S
Zr1443     O1448   2.384       .  S
Zr1444     O1447   2.380   1_455  S
O1445      H1453   0.966       .  S
O1448      H1452   0.966       .  S
O1449      H1454   0.966       .  S
O1467     Zr1479   2.447   1_655  S
O1467      C1469   1.287       .  A
O1468     Zr1505   2.420       .  S
C1469      C1635   1.435       .  S
O1470     Zr1482   2.443   1_556  S
O1470      C1472   1.287       .  A
O1471     Zr1506   2.424   1_655  S
O1471      C1472   1.285   1_554  A
C1472      C1594   1.435       .  S
O1473     Zr1482   2.443       .  S
O1473      C1475   1.287       .  A
O1474      C1475   1.285       .  A
C1475      C1595   1.435       .  S
O1476     Zr1479   2.444       .  S
O1476      C1478   1.287       .  A
O1477     Zr1506   2.423       .  S
O1477      C1478   1.285       .  A
C1478      C1634   1.435       .  S
Zr1479     O1480   2.434   1_455  S
Zr1479     O1485   2.372   1_455  S
Zr1479     O1486   2.373   1_455  S
O1480      H1523   0.990       .  S
O1481      H1522   0.990       .  S
O1481      H1526   0.990       .  S
Zr1482     O1483   2.436       .  S
Zr1482     O1718   2.435   1_554  S
Zr1482     O1486   2.373       .  S
Zr1482     O1485   2.373       .  S
Zr1482     O1744   2.373   1_554  S
Zr1482     O1746   2.372   1_554  S
O1483      H1524   0.990       .  S
O1483      H1527   0.990       .  S
O1484     Zr1716   2.435       .  S
O1484      H1517   0.990       .  S
O1486     Zr1506   2.385   1_655  S
O1486      H1513   0.966       .  S
O1487     Zr1733   2.444       .  S
O1487      C1489   1.287       .  A
O1488      C1723   1.285       .  A
C1489      O1722   1.285       .  A
C1489      C1602   1.435       .  S
O1490     Zr1502   2.444       .  S
O1490      C1492   1.287       .  A
O1491     Zr1739   2.423       .  S
O1491      C1492   1.285       .  A
C1492      C1626   1.436       .  S
O1493     Zr1502   2.444       .  S
O1493      C1495   1.287       .  A
O1494     Zr1740   2.424   1_655  S
C1495      C1630   1.435       .  S
O1496     Zr1499   2.443   1_556  S
O1496      C1732   1.287       .  A
O1497     Zr1505   2.422       .  S
O1497      C1732   1.284   1_554  A
C1498      O1730   1.287       .  A
C1498      O1731   1.284       .  A
C1498      C1606   1.434       .  S
Zr1499     O1721   2.444       .  S
Zr1499     O1734   2.436   1_554  S
Zr1499     O1501   2.434       .  S
Zr1499     O1741   2.372   1_554  S
Zr1499     O1742   2.372   1_554  S
Zr1499     O1511   2.372       .  S
Zr1499     O1509   2.373       .  S
O1500     Zr1733   2.436       .  S
O1500      H1520   0.990       .  S
O1500      H1525   0.990       .  S
O1501      H1521   0.990       .  S
Zr1502     O1503   2.433       .  S
Zr1502     O1508   2.372       .  S
Zr1502     O1507   2.373       .  S
O1503      H1519   0.990       .  S
O1504      H1518   0.990       .  S
O1504      H1528   0.990       .  S
Zr1505     O1725   2.423   1_554  S
Zr1505     O1742   2.380   1_554  S
Zr1505     O1511   2.383       .  S
Zr1506     O1728   2.424   1_454  S
Zr1506     O1746   2.380   1_454  S
O1507     Zr1733   2.372       .  S
O1507      H1515   0.966       .  S
O1508     Zr1733   2.372       .  S
O1508     Zr1739   2.380       .  S
O1510     Zr1716   2.373       .  S
O1510      H1514   0.966       .  S
O1511      H1516   0.966       .  S
O1512     Zr1716   2.372       .  S
O1512     Zr1740   2.380   1_655  S
O1529     Zr1541   2.446       .  S
O1529      C1531   1.287       .  A
O1530      C1531   1.284       .  A
C1531      C1598   1.435       .  S
O1532     Zr1544   2.443       .  S
O1533     Zr1568   2.424       .  S
O1533      C1534   1.285       .  A
C1534      C1615   1.435       .  S
O1535     Zr1544   2.443   1_545  S
O1536     Zr1567   2.424   1_545  S
C1537      C1619   1.436       .  S
O1538     Zr1541   2.444   1_556  S
O1538      C1540   1.287       .  A
O1539     Zr1568   2.421   1_556  S
O1539      C1540   1.284       .  A
C1540      C1603   1.434       .  S
Zr1541     O1542   2.434       .  S
Zr1541     O1777   2.436   1_554  S
Zr1541     O1547   2.373       .  S
Zr1541     O1548   2.373       .  S
Zr1541     O1805   2.372   1_554  S
Zr1541     O1807   2.372   1_554  S
O1542      H1585   0.990       .  S
O1543     Zr1775   2.436       .  S
O1543      H1584   0.990       .  S
O1543      H1588   0.990       .  S
Zr1544     O1546   2.435       .  S
Zr1544     O1572   2.372       .  S
Zr1544     O1574   2.372       .  S
O1545      H1586   0.990       .  S
O1545      H1589   0.990       .  S
O1546      H1579   0.990       .  S
O1548     Zr1568   2.384       .  S
O1548      H1575   0.966       .  S
O1549     Zr1561   2.444       .  S
O1550     Zr1802   2.423       .  S
C1551      C1611   1.435       .  S
O1552     Zr1564   2.443   1_556  S
O1552      C1788   1.287       .  A
O1553     Zr1567   2.423       .  S
O1553      C1788   1.285   1_554  A
C1554      O1786   1.287       .  A
C1554      O1787   1.285       .  A
C1554      C1591   1.435       .  S
O1555     Zr1564   2.443       .  S
O1555      C1791   1.287       .  A
O1556      C1791   1.285       .  A
C1557      O1789   1.287       .  A
C1557      O1790   1.285       .  A
C1557      C1599   1.435       .  S
O1558     Zr1561   2.442       .  S
O1559     Zr1801   2.422       .  S
O1559      C1560   1.285       .  A
C1560      C1607   1.434       .  S
Zr1561     O1563   2.434       .  S
Zr1561     O1573   2.372       .  S
Zr1561     O1571   2.373       .  S
O1562      H1582   0.990       .  S
O1562      H1587   0.990       .  S
O1563      H1583   0.990       .  S
Zr1564     O1799   2.433   1_554  S
Zr1564     O1566   2.434       .  S
Zr1564     O1804   2.373   1_554  S
Zr1564     O1803   2.373   1_554  S
Zr1564     O1574   2.372       .  S
Zr1564     O1572   2.370       .  S
O1565     Zr1798   2.433       .  S
O1565      H1581   0.990       .  S
O1566      H1580   0.990       .  S
O1566      H1590   0.990       .  S
Zr1567     O1793   2.422   1_554  S
Zr1567     O1804   2.380   1_554  S
Zr1567     O1572   2.382       .  S
Zr1568     O1784   2.423   1_554  S
Zr1568     O1805   2.381   1_554  S
O1569     Zr1798   2.373       .  S
O1569      H1577   0.966       .  S
O1570     Zr1798   2.373       .  S
O1570     Zr1801   2.380       .  S
O1571     Zr1775   2.372       .  S
O1571     Zr1802   2.381       .  S
O1572      H1576   0.966       .  S
O1573     Zr1775   2.372       .  S
O1573      H1578   0.966       .  S
C1591      C1826   1.206       .  T
C1592      C1825   1.206       .  T
C1592      C1593   1.412       .  S
C1593      C1594   1.206       .  T
C1595      C1596   1.206       .  T
C1596      C1597   1.412       .  S
C1597      C1598   1.206       .  T
C1599      C1600   1.206       .  T
C1600      C1601   1.412       .  S
C1601      C1602   1.206       .  T
C1603      C1604   1.205       .  T
C1604      C1605   1.411       .  S
C1605      C1840   1.205       .  T
C1606      C1839   1.205       .  T
C1607      C1608   1.205       .  T
C1609      C1610   1.205       .  T
C1611      C1612   1.206       .  T
C1612      C1613   1.412       .  S
C1613      C1614   1.206       .  T
C1615      C1616   1.206       .  T
C1617      C1618   1.206       .  T
C1619      C1620   1.206       .  T
C1620      C1621   1.413       .  S
C1621      C1622   1.206       .  T
C1623      C1624   1.206       .  T
C1625      C1626   1.206       .  T
C1627      C1628   1.206       .  T
C1628      C1629   1.412       .  S
C1629      C1630   1.206       .  T
C1631      C1632   1.206       .  T
C1633      C1634   1.206       .  T
C1635      C1636   1.206       .  T
C1636      C1637   1.412       .  S
C1637      C1638   1.205       .  T
O1639     Zr1651   2.444       .  S
O1639      C1641   1.287       .  A
O1640      C1641   1.285       .  A
C1641      C1856   1.436       .  S
O1642     Zr1654   2.445   1_455  S
O1642      C1644   1.287       .  A
O1643      C1644   1.285       .  A
C1644      C1857   1.436       .  S
O1645     Zr1654   2.444       .  S
O1645      C1647   1.287       .  A
O1646     Zr1677   2.421       .  S
C1647      C1872   1.435       .  S
O1648     Zr1651   2.443       .  S
O1648      C1650   1.287       .  A
O1649     Zr1678   2.421   1_655  S
C1650      C1844   1.434       .  S
Zr1651     O1652   2.434       .  S
Zr1651     O1657   2.373       .  S
Zr1651     O1658   2.373       .  S
O1652      H1695   0.990       .  S
O1653      H1694   0.990       .  S
O1653      H1698   0.990       .  S
Zr1654     O1655   2.436       .  S
Zr1654     O1658   2.373       .  S
Zr1654     O1657   2.373       .  S
O1655      H1696   0.990       .  S
O1655      H1699   0.990       .  S
O1656      H1689   0.990       .  S
O1658      H1685   0.966       .  S
O1659     Zr1671   2.444       .  S
O1659      C1661   1.287       .  A
O1660     Zr1678   2.423   1_655  S
C1661      C1861   1.435       .  S
O1662     Zr1674   2.443   1_565  S
O1662      C1664   1.287       .  A
O1663     Zr1677   2.423       .  S
C1664      C1852   1.435       .  S
O1665     Zr1674   2.444       .  S
O1665      C1667   1.287       .  A
O1666      C1667   1.285       .  A
C1667      C1848   1.435       .  S
O1668     Zr1671   2.444       .  S
O1668      C1670   1.287       .  A
O1669      C1670   1.285       .  A
C1670      C1865   1.435       .  S
Zr1671     O1672   2.436       .  S
Zr1671     O1679   2.373       .  S
Zr1671     O1680   2.371       .  S
O1672      H1692   0.990       .  S
O1672      H1697   0.990       .  S
O1673      H1693   0.990       .  S
Zr1674     O1675   2.434   1_545  S
Zr1674     O1680   2.373   1_545  S
Zr1674     O1679   2.372   1_545  S
O1675      H1691   0.990       .  S
O1676      H1690   0.990       .  S
O1676      H1700   0.990       .  S
Zr1677     O1682   2.384       .  S
Zr1678     O1681   2.380   1_455  S
O1679      H1687   0.966       .  S
O1682      H1686   0.966       .  S
O1683      H1688   0.966       .  S
O1701     Zr1713   2.447   1_655  S
O1701      C1703   1.287       .  A
O1702     Zr1739   2.420       .  S
C1703      C1869   1.435       .  S
O1704     Zr1716   2.443       .  S
O1704      C1706   1.287       .  A
O1705     Zr1740   2.424   1_655  S
O1705      C1706   1.285       .  A
C1706      C1828   1.435       .  S
O1707     Zr1716   2.443       .  S
O1707      C1709   1.287       .  A
O1708      C1709   1.285       .  A
C1709      C1829   1.435       .  S
O1710     Zr1713   2.444       .  S
O1710      C1712   1.287       .  A
O1711     Zr1740   2.423       .  S
O1711      C1712   1.285       .  A
C1712      C1868   1.435       .  S
Zr1713     O1714   2.434   1_455  S
Zr1713     O1719   2.372   1_455  S
Zr1713     O1720   2.373   1_455  S
O1714      H1757   0.990       .  S
O1715      H1756   0.990       .  S
O1715      H1760   0.990       .  S
Zr1716     O1717   2.436       .  S
Zr1716     O1720   2.373       .  S
Zr1716     O1719   2.373       .  S
O1717      H1758   0.990       .  S
O1717      H1761   0.990       .  S
O1718      H1751   0.990       .  S
O1720     Zr1740   2.385   1_655  S
O1720      H1747   0.966       .  S
O1721      C1723   1.287       .  A
C1723      C1836   1.435       .  S
O1724     Zr1736   2.444       .  S
O1724      C1726   1.287       .  A
O1725      C1726   1.285       .  A
C1726      C1860   1.436       .  S
O1727     Zr1736   2.444       .  S
O1727      C1729   1.287       .  A
C1729      C1864   1.435       .  S
O1730     Zr1733   2.443       .  S
O1731     Zr1739   2.422       .  S
C1732      C1840   1.434       .  S
Zr1733     O1735   2.434       .  S
Zr1733     O1745   2.372       .  S
Zr1733     O1743   2.373       .  S
O1734      H1754   0.990       .  S
O1734      H1759   0.990       .  S
O1735      H1755   0.990       .  S
Zr1736     O1737   2.433       .  S
Zr1736     O1742   2.372       .  S
Zr1736     O1741   2.373       .  S
O1737      H1753   0.990       .  S
O1738      H1752   0.990       .  S
O1738      H1762   0.990       .  S
Zr1739     O1745   2.383       .  S
O1741      H1749   0.966       .  S
O1744      H1748   0.966       .  S
O1745      H1750   0.966       .  S
O1763     Zr1775   2.446       .  S
O1763      C1765   1.287       .  A
O1764      C1765   1.284       .  A
C1765      C1832   1.435       .  S
O1766     Zr1778   2.443       .  S
O1767     Zr1802   2.424       .  S
O1767      C1768   1.285       .  A
C1768      C1849   1.435       .  S
O1769     Zr1778   2.443   1_545  S
O1770     Zr1801   2.424   1_545  S
C1771      C1853   1.436       .  S
O1772     Zr1775   2.444       .  S
O1772      C1774   1.287       .  A
O1773     Zr1802   2.421       .  S
O1773      C1774   1.284       .  A
C1774      C1837   1.434       .  S
Zr1775     O1776   2.434       .  S
Zr1775     O1781   2.373       .  S
Zr1775     O1782   2.373       .  S
O1776      H1819   0.990       .  S
O1777      H1818   0.990       .  S
O1777      H1822   0.990       .  S
Zr1778     O1780   2.435       .  S
Zr1778     O1806   2.372       .  S
Zr1778     O1808   2.372       .  S
O1779      H1820   0.990       .  S
O1779      H1823   0.990       .  S
O1780      H1813   0.990       .  S
O1782     Zr1802   2.384       .  S
O1782      H1809   0.966       .  S
O1783     Zr1795   2.444       .  S
C1785      C1845   1.435       .  S
O1786     Zr1798   2.443       .  S
O1787     Zr1801   2.423       .  S
C1788      C1825   1.435       .  S
O1789     Zr1798   2.443       .  S
C1791      C1833   1.435       .  S
O1792     Zr1795   2.442       .  S
O1793      C1794   1.285       .  A
C1794      C1841   1.434       .  S
Zr1795     O1797   2.434       .  S
Zr1795     O1807   2.372       .  S
Zr1795     O1805   2.373       .  S
O1796      H1816   0.990       .  S
O1796      H1821   0.990       .  S
O1797      H1817   0.990       .  S
Zr1798     O1800   2.434       .  S
Zr1798     O1808   2.372       .  S
Zr1798     O1806   2.370       .  S
O1799      H1815   0.990       .  S
O1800      H1814   0.990       .  S
O1800      H1824   0.990       .  S
Zr1801     O1806   2.382       .  S
O1803      H1811   0.966       .  S
O1806      H1810   0.966       .  S
O1807      H1812   0.966       .  S
C1826      C1827   1.412       .  S
C1827      C1828   1.206       .  T
C1829      C1830   1.206       .  T
C1830      C1831   1.412       .  S
C1831      C1832   1.206       .  T
C1833      C1834   1.206       .  T
C1834      C1835   1.412       .  S
C1835      C1836   1.206       .  T
C1837      C1838   1.205       .  T
C1838      C1839   1.411       .  S
C1841      C1842   1.205       .  T
C1843      C1844   1.205       .  T
C1845      C1846   1.206       .  T
C1846      C1847   1.412       .  S
C1847      C1848   1.206       .  T
C1849      C1850   1.206       .  T
C1851      C1852   1.206       .  T
C1853      C1854   1.206       .  T
C1854      C1855   1.413       .  S
C1855      C1856   1.206       .  T
C1857      C1858   1.206       .  T
C1859      C1860   1.206       .  T
C1861      C1862   1.206       .  T
C1862      C1863   1.412       .  S
C1863      C1864   1.206       .  T
C1865      C1866   1.206       .  T
C1867      C1868   1.206       .  T
C1869      C1870   1.206       .  T
C1870      C1871   1.412       .  S
C1871      C1872   1.205       .  T
