geometry optimzed in LAMMPS
_audit_creation_date              2020-12-01 
_audit_creation_method            'lammps2cif' 
_symmetry_space_group_name_H-M    'P1' 
_symmetry_Int_Tables_number       1 
_symmetry_cell_setting            triclinic 
loop_ 
_symmetry_equiv_pos_as_xyz 
  x,y,z 
_cell_length_a                    44.91421906 
_cell_length_b                    45.30105371439545 
_cell_length_c                    45.29707361404026 
_cell_angle_alpha                 89.98673713810847 
_cell_angle_beta                  90.1814732748744 
_cell_angle_gamma                 89.95809803776518 
loop_ 
_atom_site_label 
_atom_site_type_symbol 
_atom_site_fract_x 
_atom_site_fract_y 
_atom_site_fract_z 
_atom_site_charge 
N1          N  0.06098740  0.48993187  0.21409653    -0.07200
N2          N  0.07690239  0.47963346  0.19196912    -0.59300
N3          N  0.06069540  0.01290100  0.27928261    -0.06800
N4          N  0.07797693  0.02362298  0.30028042    -0.61400
N5          N  0.06101323  0.49129734  0.28166329    -0.06400
N6          N  0.07892035  0.48160109  0.30258494    -0.59300
N7          N  0.05745460  0.01192124  0.21146015    -0.06100
N8          N  0.07343711  0.02170299  0.18909508    -0.61800
C9          C  0.08337790  0.99676558  0.17576811     0.95000
C10         C  0.08962430  0.50650672  0.31520724     0.94800
N11         N  0.48082062  0.06200507  0.28285874    -0.07300
N12         N  0.47142089  0.07852020  0.30491824    -0.59900
N13         N  0.00729686  0.06025954  0.21331287    -0.05500
N14         N  0.01640378  0.07671743  0.19113583    -0.61100
N15         N  0.47717217  0.06194308  0.21533757    -0.07400
N16         N  0.46568348  0.07973280  0.19525510    -0.60100
N17         N  0.01039093  0.06158370  0.28117518    -0.05100
N18         N  0.02083173  0.07984745  0.30150277    -0.61200
Mn19       Mn  0.03468860  0.03737510  0.24629678     1.18400
C20         C  0.49669393  0.08891073  0.31746160     0.97100
C21         C  0.99093339  0.08658983  0.17849979     0.97800
N22         N  0.01195203  0.44219596  0.28310632    -0.07400
N23         N  0.02197124  0.42696468  0.30591954    -0.63700
N24         N  0.48217138  0.44191827  0.21402560    -0.06200
N25         N  0.47207834  0.42433443  0.19305530    -0.64400
N26         N  0.01252332  0.43952261  0.21498238    -0.06900
N27         N  0.02248642  0.42129249  0.19443852    -0.64000
N28         N  0.48323237  0.44279616  0.28190837    -0.05800
N29         N  0.47392590  0.42514032  0.30314820    -0.64700
Mn30       Mn  0.03742418  0.46500468  0.24842612     1.10700
C31         C  0.49935948  0.41518615  0.31597537     0.98300
C32         C  0.99734242  0.41035060  0.18182238     0.98400
N33         N  0.42854757  0.01204975  0.21778328    -0.06900
N34         N  0.41113776  0.02167145  0.19632452    -0.62300
N35         N  0.43327132  0.49135275  0.28151612    -0.06200
N36         N  0.41807075  0.48099647  0.30405342    -0.59000
N37         N  0.43258684  0.01299882  0.28529218    -0.07500
N38         N  0.41738121  0.02410971  0.30739050    -0.61900
N39         N  0.43225828  0.49002521  0.21366812    -0.06500
N40         N  0.41622319  0.47892774  0.19195515    -0.59000
Mn41       Mn  0.45407400  0.03782715  0.25020831     1.20200
Mn42       Mn  0.45693915  0.46590594  0.24783188     1.10100
Cl43       Cl  0.99552106  0.99684825  0.24830436    -0.87000
C44         C  0.40045727  0.99659572  0.18395128     0.95300
C45         C  0.40777012  0.50547311  0.31771043     0.95100
N46         N  0.48144512  0.21732086  0.06535990    -0.07200
N47         N  0.47021169  0.19615285  0.08189106    -0.59300
N48         N  0.01182081  0.28258424  0.06564343    -0.06800
N49         N  0.02267356  0.30369209  0.08253478    -0.61400
N50         N  0.48405798  0.28492767  0.06696991    -0.06400
N51         N  0.47470508  0.30675739  0.08384704    -0.59300
N52         N  0.01111118  0.21466501  0.06412022    -0.06100
N53         N  0.02100561  0.19216537  0.07988609    -0.61800
C54         C  0.99593527  0.17853093  0.08934915     0.95000
C55         C  0.50012092  0.31880216  0.09459900     0.94800
N56         N  0.05799986  0.28810283  0.48204170    -0.07300
N57         N  0.07499840  0.31011163  0.47311634    -0.59900
N58         N  0.05996545  0.21632990  0.01535713    -0.05500
N59         N  0.07576391  0.19423486  0.02572008    -0.61100
N60         N  0.05937882  0.22007312  0.48050575    -0.07400
N61         N  0.07619449  0.19818480  0.47085910    -0.60100
N62         N  0.06058587  0.28368685  0.01684384    -0.05100
N63         N  0.07695045  0.30515641  0.02790881    -0.61200
Mn64       Mn  0.03655644  0.24926889  0.04111964     1.18400
C65         C  0.08463618  0.32258747  0.49856776     0.97100
C66         C  0.08514248  0.18430224  0.49591360     0.97800
N67         N  0.43510415  0.28786431  0.01752924    -0.07400
N68         N  0.42001985  0.31042677  0.02822899    -0.63700
N69         N  0.43591577  0.21795283  0.47976282    -0.06200
N70         N  0.41901966  0.19654261  0.46933115    -0.64400
N71         N  0.43270959  0.21977590  0.01619295    -0.06900
N72         N  0.41645390  0.19765846  0.02605919    -0.64000
N73         N  0.43561954  0.28597525  0.48039493    -0.05800
N74         N  0.41905261  0.30802278  0.47064167    -0.64700
Mn75       Mn  0.45754599  0.25254329  0.04213035     1.10700
C76         C  0.40957898  0.32152421  0.49561669     0.98300
C77         C  0.40850246  0.18290992  0.49372403     0.98400
N78         N  0.01164400  0.22046085  0.42971814    -0.06900
N79         N  0.02288503  0.19924098  0.41314262    -0.62300
N80         N  0.48478287  0.28620107  0.43112515    -0.06200
N81         N  0.47407589  0.30775457  0.41468342    -0.59000
N82         N  0.00937406  0.28865743  0.43207914    -0.07500
N83         N  0.01885050  0.31208398  0.41750518    -0.61900
N84         N  0.48558090  0.21818345  0.43081867    -0.06500
N85         N  0.47590654  0.19603004  0.41445372    -0.59000
Mn86       Mn  0.03543321  0.25438170  0.45526311     1.20200
Mn87       Mn  0.45970419  0.25205420  0.45478976     1.10100
Cl88       Cl  0.49964477  0.25221572  0.49458016    -0.87000
C89         C  0.99869832  0.18509414  0.40223586     0.95300
C90         C  0.49850088  0.32161205  0.40419795     0.95100
N91         N  0.28094659  0.43670327  0.48382282    -0.07200
N92         N  0.30226883  0.41987399  0.47322553    -0.59300
N93         N  0.21110659  0.43899278  0.01401400    -0.06800
N94         N  0.18870339  0.42364309  0.02480385    -0.61400
N95         N  0.21241683  0.43778944  0.48261002    -0.06400
N96         N  0.18983094  0.42221167  0.47221651    -0.59300
N97         N  0.28011624  0.43850339  0.01447877    -0.06100
N98         N  0.30340326  0.42402034  0.02505687    -0.61800
C99         C  0.31560193  0.40871931  0.49750043     0.95000
C100        C  0.17586420  0.41246590  0.49683701     0.94800
N101        N  0.21149675  0.01509901  0.06098872    -0.07300
N102        N  0.18937894  0.02507623  0.07719535    -0.59900
N103        N  0.27938583  0.48982413  0.06068348    -0.05500
N104        N  0.30124198  0.48015595  0.07751952    -0.61100
N105        N  0.27961778  0.01495671  0.06207919    -0.07400
N106        N  0.30082758  0.02466311  0.07971836    -0.60100
N107        N  0.21104860  0.49031432  0.06009827    -0.05100
N108        N  0.18904762  0.48129347  0.07704712    -0.61200
Mn109      Mn  0.24540820  0.46363076  0.03812721     1.18400
C110        C  0.17534764  0.00042053  0.08649407     0.97100
C111        C  0.31522655  0.50502454  0.08645836     0.97800
N112        N  0.21502610  0.48696759  0.43377759    -0.07400
N113        N  0.19438783  0.47708947  0.41563501    -0.63700
N114        N  0.28068840  0.01615744  0.43700929    -0.06200
N115        N  0.30323276  0.02573245  0.42116022    -0.64400
N116        N  0.28303614  0.48613962  0.43597361    -0.06900
N117        N  0.30476661  0.47569903  0.41953752    -0.64000
N118        N  0.21226139  0.01536159  0.43504410    -0.05800
N119        N  0.19121648  0.02429041  0.41668095    -0.64700
Mn120      Mn  0.24776686  0.46120864  0.45841406     1.10700
C121        C  0.17864639  0.99890352  0.40689502     0.98300
C122        C  0.31878656  0.50010720  0.40951684     0.98400
N123        N  0.28047087  0.06528923  0.01482661    -0.06900
N124        N  0.30195863  0.08156615  0.02618384    -0.62300
N125        N  0.21085212  0.06626176  0.48196797    -0.06200
N126        N  0.18849395  0.08167298  0.47094352    -0.59000
N127        N  0.21204247  0.06485652  0.01350059    -0.07500
N128        N  0.18895702  0.07960745  0.02359259    -0.61900
N129        N  0.27949862  0.06741918  0.48331490    -0.06500
N130        N  0.30177557  0.08342304  0.47310630    -0.59000
Mn131      Mn  0.24592148  0.04078828  0.03856682     1.20200
Mn132      Mn  0.24579502  0.04204503  0.45854406     1.10100
Cl133      Cl  0.24571817  0.00404541  0.50006946    -0.87000
C134        C  0.31506675  0.09428753  0.49774232     0.95300
C135        C  0.17434548  0.09222990  0.49506891     0.95100
C136        C  0.36243444  0.38780001  0.51811106    -0.21300
C137        C  0.34005097  0.38683580  0.49644799    -0.07900
C138        C  0.34124634  0.36480195  0.47426935     0.13000
C139        C  0.36480890  0.34458583  0.47428940    -0.21400
C140        C  0.38694695  0.34522489  0.49609374    -0.07900
C141        C  0.38596350  0.36729661  0.51822750     0.12900
C142        C  0.40992283  0.36989519  0.54148474    -0.24800
H143        H  0.36158871  0.40482439  0.53495107     0.14200
H144        H  0.36541247  0.32744966  0.45755388     0.14300
C145        C  0.31712426  0.36134381  0.45126453    -0.24700
H146        H  0.40655116  0.38957765  0.55572477     0.04500
H147        H  0.43203344  0.37199805  0.53078995     0.07700
H148        H  0.38243829  0.33034368  0.06479327     0.07700
H149        H  0.31692681  0.38068784  0.43625730     0.07700
H150        H  0.32798087  0.38944041  0.93857541     0.07700
H151        H  0.32062577  0.34144154  0.43737016     0.04500
C152        C  0.36975037  0.15322393  0.02758622    -0.21300
C153        C  0.38643877  0.15832932  0.49371482    -0.10000
C154        C  0.37339676  0.14668231  0.46761100     0.13000
C155        C  0.35070679  0.12550781  0.46991559    -0.21400
C156        C  0.34072991  0.11513127  0.49738267    -0.07900
C157        C  0.34765438  0.13142869  0.02913519     0.12900
C158        C  0.33120368  0.12770587  0.05787222    -0.24800
H159        H  0.37417150  0.16665890  0.04698183     0.14200
H160        H  0.34032646  0.11731893  0.44987430     0.14300
C161        C  0.38281634  0.15625283  0.43713535    -0.24700
H162        H  0.33920159  0.14331037  0.07507522     0.04500
H163        H  0.33470784  0.10507202  0.06651229     0.07700
H164        H  0.30709153  0.13194990  0.05449225     0.07700
H165        H  0.40694653  0.15190703  0.43407627     0.07700
H166        H  0.37795698  0.18005924  0.43393028     0.07700
H167        H  0.37072960  0.14401863  0.41954917     0.04500
C168        C  0.10746901  0.36702765  0.47611598    -0.21300
C169        C  0.10648408  0.34703400  0.49981485    -0.07900
C170        C  0.12733391  0.34993002  0.52315902     0.13000
C171        C  0.14912703  0.37193925  0.52152862    -0.21400
C172        C  0.15086169  0.39119496  0.49732787    -0.07900
C173        C  0.12921450  0.38925868  0.47467506     0.12900
C174        C  0.12839375  0.41079636  0.44933721    -0.24800
H175        H  0.09117517  0.36516446  0.45851603     0.14200
H176        H  0.16553327  0.37354957  0.53905329     0.14300
C177        C  0.12592879  0.33313324  0.05729934    -0.24700
H178        H  0.10875776  0.40714565  0.43481632     0.04500
H179        H  0.15314986  0.40030540  0.93789364     0.07700
H180        H  0.12716046  0.43372472  0.45793771     0.07700
H181        H  0.13098451  0.30970003  0.05215914     0.07700
H182        H  0.10689869  0.33172964  0.56213940     0.07700
H183        H  0.14269876  0.34080749  0.07365554     0.04500
C184        C  0.11197461  0.14400989  0.47020825    -0.21300
C185        C  0.10596592  0.15889714  0.49674365    -0.07900
C186        C  0.12071129  0.14979673  0.52295869     0.13000
C187        C  0.14194915  0.12726351  0.52146559    -0.21400
C188        C  0.14923238  0.11351176  0.49467062    -0.07900
C189        C  0.13329797  0.12136682  0.46878501     0.12900
C190        C  0.13826524  0.10622165  0.43956179    -0.24800
H191        H  0.10025168  0.15037961  0.45034044     0.14200
H192        H  0.15357598  0.12100056  0.54142532     0.14300
C193        C  0.12061063  0.16378858  0.05670161    -0.24700
H194        H  0.12249043  0.11414577  0.42236458     0.04500
H195        H  0.13491523  0.08205628  0.44202370     0.07700
H196        H  0.15873588  0.10608371  0.93525948     0.07700
H197        H  0.09169212  0.16080881  0.55923812     0.07700
H198        H  0.12608187  0.18752044  0.05390676     0.07700
H199        H  0.13589176  0.15480602  0.07381459     0.04500
C200        C  0.37008862  0.47849777  0.34641927    -0.21300
C201        C  0.38681365  0.50437310  0.34286061    -0.07900
C202        C  0.37016628  0.02760967  0.35435348     0.13000
C203        C  0.34885784  0.02650778  0.37671976    -0.21400
C204        C  0.34327081  0.50001212  0.38763754    -0.07900
C205        C  0.34834642  0.47594106  0.36830015     0.12900
C206        C  0.33039435  0.44782066  0.36948352    -0.24800
H207        H  0.37337661  0.46023082  0.33125900     0.14200
H208        H  0.33588333  0.04613548  0.38133040     0.14300
C209        C  0.37369133  0.05635409  0.33789147    -0.24700
H210        H  0.33698417  0.43200067  0.35193743     0.04500
H211        H  0.30640552  0.45284459  0.36624680     0.07700
H212        H  0.35925088  0.95107500  0.42759821     0.07700
H213        H  0.39604353  0.56773835  0.34046697     0.07700
H214        H  0.39676613  0.06453519  0.34039521     0.07700
H215        H  0.35870886  0.07387805  0.34644406     0.04500
C216        C  0.13914127  0.02395293  0.37781745    -0.21300
C217        C  0.15484754  0.99781384  0.38394955    -0.07900
C218        C  0.14936387  0.47686241  0.36577717     0.13000
C219        C  0.12663782  0.47925501  0.34476686    -0.21400
C220        C  0.11294161  0.50638744  0.33838142    -0.07900
C221        C  0.11762315  0.02541962  0.35528734     0.12900
C222        C  0.10190436  0.05444069  0.35023237    -0.24800
H223        H  0.14387782  0.04355772  0.39061457     0.14200
H224        H  0.11987064  0.45965173  0.33290251     0.14300
C225        C  0.16375696  0.44704377  0.37003297    -0.24700
H226        H  0.10887057  0.07148511  0.36646448     0.04500
H227        H  0.08471885  0.56163600  0.35173310     0.07700
H228        H  0.10728762  0.06308031  0.32795181     0.07700
H229        H  0.15992262  0.43910832  0.39285002     0.07700
H230        H  0.18866345  0.94639121  0.36853542     0.07700
H231        H  0.15440772  0.43014321  0.35486398     0.04500
C232        C  0.14083888  0.97263679  0.11869176    -0.21300
C233        C  0.14985789  0.00002614  0.10732442    -0.07900
C234        C  0.13499413  0.02596549  0.11687315     0.13000
C235        C  0.11267732  0.02372002  0.13830628    -0.21400
C236        C  0.10481598  0.99651471  0.15086440    -0.07900
C237        C  0.11871625  0.97040708  0.14032946     0.12900
C238        C  0.10304832  0.44840085  0.14401926    -0.24800
H239        H  0.14444436  0.46027754  0.10383863     0.14200
H240        H  0.10174933  0.04369270  0.14584456     0.14300
C241        C  0.14234697  0.05625131  0.10509157    -0.24700
H242        H  0.11157904  0.43109455  0.12885429     0.04500
H243        H  0.08723925  0.93530911  0.14812101     0.07700
H244        H  0.10935856  0.44169898  0.16675274     0.07700
H245        H  0.13967093  0.05661555  0.08071908     0.07700
H246        H  0.17618981  0.56496568  0.11757082     0.07700
H247        H  0.12745324  0.07352955  0.11427860     0.04500
C248        C  0.34331521  0.47943792  0.12565583    -0.21300
C249        C  0.33993081  0.50484810  0.10822564    -0.07900
C250        C  0.35806922  0.02217592  0.11662533     0.13000
C251        C  0.37860190  0.02042331  0.13990894    -0.21400
C252        C  0.37920188  0.99605395  0.15902795    -0.07900
C253        C  0.36484504  0.47764665  0.14795157     0.12900
C254        C  0.36589820  0.45002587  0.16655911    -0.24800
H255        H  0.32836477  0.46093348  0.12242097     0.14200
H256        H  0.39426972  0.03828048  0.14323431     0.14300
C257        C  0.35903450  0.04865680  0.09648908    -0.24700
H258        H  0.34844390  0.43391538  0.16003811     0.04500
H259        H  0.36218269  0.45567268  0.19011478     0.07700
H260        H  0.38773006  0.43888581  0.16386592     0.07700
H261        H  0.33835656  0.06178889  0.09896244     0.07700
H262        H  0.36152182  0.04137715  0.07321297     0.07700
H263        H  0.37801718  0.06345014  0.10180262     0.04500
C264        C  0.52513482  0.12441196  0.34844595    -0.21300
C265        C  0.49774513  0.11087733  0.34196771    -0.07900
C266        C  0.47227554  0.11940970  0.35834930     0.13000
C267        C  0.97184976  0.14787918  0.37220589    -0.21400
C268        C  0.99929556  0.15971201  0.38118182    -0.07900
C269        C  0.02580154  0.14731653  0.36947423     0.12900
C270        C  0.05630798  0.15785646  0.37858796    -0.24800
H271        H  0.54487343  0.11756819  0.33660127     0.14200
H272        H  0.95147557  0.15679179  0.38132608     0.14300
C273        C  0.44257689  0.10437239  0.35488052    -0.24700
H274        H  0.57525927  0.14999878  0.36099706     0.04500
H275        H  0.56429858  0.15778295  0.39810948     0.07700
H276        H  0.05911314  0.18143014  0.37253263     0.07700
H277        H  0.44522430  0.08030905  0.35876998     0.07700
H278        H  0.93464322  0.11787373  0.31978434     0.07700
H279        H  0.92150932  0.12496350  0.35633992     0.04500
C280        C  0.01987005  0.36649993  0.38297541    -0.21300
C281        C  0.49794452  0.34680457  0.38294229    -0.07900
C282        C  0.47125063  0.35819189  0.37047486     0.13000
C283        C  0.47279656  0.38078971  0.34934177    -0.21400
C284        C  0.50007757  0.39258377  0.33994797    -0.07900
C285        C  0.02191231  0.38923742  0.36198056     0.12900
C286        C  0.05152925  0.40435934  0.35795180    -0.24800
H287        H  0.03978470  0.35966825  0.39465113     0.14200
H288        H  0.45230425  0.38897434  0.33970659     0.14300
C289        C  0.44083641  0.34675150  0.37869354    -0.24700
H290        H  0.06826319  0.39669072  0.37436427     0.04500
H291        H  0.04886289  0.42856233  0.36088015     0.07700
H292        H  0.06059725  0.39950706  0.33573543     0.07700
H293        H  0.43698180  0.34990905  0.40268512     0.07700
H294        H  0.43895110  0.32304415  0.37279260     0.07700
H295        H  0.42273907  0.35857983  0.36681705     0.04500
C296        C  0.02357113  0.38036590  0.14389266    -0.21300
C297        C  0.99682152  0.38732602  0.15830073    -0.07900
C298        C  0.47289743  0.38479628  0.13808285     0.13000
C299        C  0.47488884  0.36145815  0.11783606    -0.21400
C300        C  0.50073080  0.34416420  0.11537768    -0.07900
C301        C  0.02502166  0.35814065  0.12227457     0.12900
C302        C  0.05454757  0.35247362  0.10755040    -0.24800
H303        H  0.04363416  0.39239284  0.14961588     0.14200
H304        H  0.45581595  0.35651859  0.10391667     0.14300
C305        C  0.44439119  0.40237792  0.13925533    -0.24700
H306        H  0.07200389  0.36808379  0.11520802     0.04500
H307        H  0.05223896  0.35523838  0.08329221     0.07700
H308        H  0.06246853  0.32986340  0.11280983     0.07700
H309        H  0.44919843  0.42615121  0.13570529     0.07700
H310        H  0.43336980  0.39918099  0.16089741     0.07700
H311        H  0.42831087  0.39531747  0.12195314     0.04500
C312        C  0.01799125  0.11477882  0.14022704    -0.21300
C313        C  0.99059425  0.10794326  0.15348039    -0.07900
C314        C  0.46561593  0.13359537  0.15383528     0.13000
C315        C  0.46789897  0.15519098  0.13178324    -0.21400
C316        C  0.99494777  0.15288792  0.10995394    -0.07900
C317        C  0.02061339  0.13689725  0.11874531     0.12900
C318        C  0.05094395  0.14266975  0.10583561    -0.24800
H319        H  0.03791362  0.10308733  0.14717211     0.14200
H320        H  0.45017547  0.17133988  0.12937507     0.14300
C321        C  0.43874958  0.13396989  0.17372110    -0.24700
H322        H  0.06795320  0.12696014  0.11431245     0.04500
H323        H  0.05855317  0.16519959  0.11177312     0.07700
H324        H  0.04999445  0.14010836  0.08148001     0.07700
H325        H  0.44590012  0.13658659  0.19706153     0.07700
H326        H  0.42595175  0.11319501  0.17107355     0.07700
H327        H  0.42346606  0.15253132  0.16837885     0.04500
N328        N  0.05763100  0.48236153  0.71033824    -0.07200
N329        N  0.07253372  0.47209830  0.68746293    -0.59300
N330        N  0.05940696  0.02209404  0.78173806    -0.06800
N331        N  0.07443467  0.03284501  0.80440833    -0.61400
N332        N  0.06025855  0.48257137  0.77842739    -0.06400
N333        N  0.07665611  0.47236839  0.80039473    -0.59300
N334        N  0.05846064  0.02156892  0.71345870    -0.06100
N335        N  0.07258343  0.03192231  0.69013479    -0.61800
C336        C  0.08211927  0.00736209  0.67591652     0.95000
C337        C  0.08663504  0.49703181  0.81411716     0.94800
N338        N  0.48245176  0.06920069  0.78257805    -0.07300
N339        N  0.47160594  0.08521548  0.80429958    -0.59900
N340        N  0.00813485  0.06958023  0.71440296    -0.05500
N341        N  0.01752764  0.08733418  0.69335364    -0.61100
N342        N  0.48306071  0.06984126  0.71486715    -0.07400
N343        N  0.47272606  0.08669158  0.69349814    -0.60100
N344        N  0.00883910  0.06899352  0.78228886    -0.05100
N345        N  0.01849867  0.08516862  0.80458134    -0.61200
Mn346      Mn  0.03461330  0.04633259  0.74790767     1.18400
C347        C  0.49594663  0.09547999  0.81854443     0.97100
C348        C  0.99215135  0.09681740  0.68022026     0.97800
N349        N  0.01095407  0.43394684  0.78026374    -0.07400
N350        N  0.02203674  0.41726850  0.80150158    -0.63700
N351        N  0.48203067  0.43326083  0.71538839    -0.06200
N352        N  0.47115585  0.41711833  0.69364701    -0.64400
N353        N  0.00778793  0.43384477  0.71238074    -0.06900
N354        N  0.01655932  0.41775312  0.68975481    -0.64000
N355        N  0.48545822  0.43361066  0.78335409    -0.05800
N356        N  0.47672732  0.41762050  0.80608438    -0.64700
Mn357      Mn  0.03499599  0.45741943  0.74526416     1.10700
C358        C  0.50250555  0.40828626  0.81856178     0.98300
C359        C  0.99079747  0.40817385  0.67736113     0.98400
N360        N  0.43405210  0.02109548  0.71367872    -0.06900
N361        N  0.41854838  0.03161018  0.69129165    -0.62300
N362        N  0.43532464  0.48147804  0.78502079    -0.06200
N363        N  0.41965547  0.47105984  0.80723000    -0.59000
N364        N  0.43274241  0.02143704  0.78118224    -0.07500
N365        N  0.41525934  0.03213567  0.80187661    -0.61900
N366        N  0.43184060  0.48086746  0.71744230    -0.06500
N367        N  0.41490777  0.47015556  0.69618510    -0.59000
Mn368      Mn  0.45745226  0.04601260  0.74804396     1.20200
Mn369      Mn  0.45793319  0.45652651  0.75036234     1.10100
Cl370      Cl  0.99633986  0.00495594  0.74813795    -0.87000
C371        C  0.40851924  0.00717311  0.67730996     0.95300
C372        C  0.40961693  0.49559363  0.82097613     0.95100
N373        N  0.48545541  0.21805932  0.55816159    -0.07200
N374        N  0.47560823  0.19693108  0.57559406    -0.59300
N375        N  0.00697135  0.28491067  0.55836010    -0.06800
N376        N  0.01688914  0.30655615  0.57502342    -0.61400
N377        N  0.48478807  0.28573859  0.55844443    -0.06400
N378        N  0.47457642  0.30686808  0.57573931    -0.59300
N379        N  0.00846371  0.21750744  0.55771294    -0.06100
N380        N  0.01901343  0.19753596  0.57614412    -0.61800
C381        C  0.99440158  0.18428284  0.58698328     0.95000
C382        C  0.49951551  0.32023074  0.58604192     0.94800
N383        N  0.06080509  0.28464633  0.98782833    -0.07300
N384        N  0.07737975  0.30683510  0.97861153    -0.59900
N385        N  0.05810570  0.21957423  0.50947929    -0.05500
N386        N  0.07387811  0.19752546  0.52009521    -0.61100
N387        N  0.06079752  0.21684821  0.98638456    -0.07400
N388        N  0.07734527  0.19493729  0.97643575    -0.60100
N389        N  0.05718770  0.28714778  0.51101658    -0.05100
N390        N  0.07362220  0.30840756  0.52240341    -0.61200
Mn391      Mn  0.03330191  0.25224938  0.53467961     1.18400
C392        C  0.08736315  0.31944927  0.00388612     0.97100
C393        C  0.08657097  0.18106707  0.00135398     0.97800
N394        N  0.43590976  0.28573382  0.50941990    -0.07400
N395        N  0.41977694  0.30761769  0.52000365    -0.63700
N396        N  0.43284436  0.22002001  0.98718243    -0.06200
N397        N  0.41662310  0.19804353  0.97676242    -0.64400
N398        N  0.43583670  0.21772464  0.50877237    -0.06900
N399        N  0.41884419  0.19610015  0.51859143    -0.64000
N400        N  0.43493674  0.28843448  0.98852145    -0.05800
N401        N  0.41971137  0.31152044  0.97898179    -0.64700
Mn402      Mn  0.45973101  0.25171173  0.53433470     1.10700
C403        C  0.41053097  0.32518654  0.00401702     0.98300
C404        C  0.40660894  0.18411414  0.00124874     0.98400
N405        N  0.01206329  0.21749061  0.93691638    -0.06900
N406        N  0.02221426  0.19567245  0.92042400    -0.62300
N407        N  0.48417969  0.28755282  0.93955119    -0.06200
N408        N  0.47462630  0.30969450  0.92311811    -0.59000
N409        N  0.01160725  0.28549054  0.93773054    -0.07500
N410        N  0.02136363  0.30676369  0.92031896    -0.61900
N411        N  0.48258427  0.21935619  0.93814842    -0.06500
N412        N  0.47217660  0.19778203  0.92142065    -0.59000
Mn413      Mn  0.03718787  0.25123469  0.96141617     1.20200
Mn414      Mn  0.45776810  0.25384337  0.96256283     1.10100
Cl415      Cl  0.49759673  0.25188299  0.00257551    -0.87000
C416        C  0.99723096  0.18215387  0.91051257     0.95300
C417        C  0.49989919  0.32265183  0.91339086     0.95100
N418        N  0.27982761  0.43716052  0.98552817    -0.07200
N419        N  0.30274908  0.42187341  0.97585121    -0.59300
N420        N  0.21241342  0.43740175  0.51161666    -0.06800
N421        N  0.18993974  0.42168109  0.52157426    -0.61400
N422        N  0.21117842  0.43760697  0.98506050    -0.06400
N423        N  0.18884475  0.42128231  0.97553167    -0.59300
N424        N  0.28105468  0.43617140  0.51282718    -0.06100
N425        N  0.30264923  0.41879185  0.52258112    -0.61800
C426        C  0.31746679  0.41378807  0.00060169     0.95000
C427        C  0.17483093  0.41285809  0.00052174     0.94800
N428        N  0.21039129  0.02119201  0.56149428    -0.07300
N429        N  0.18735799  0.03238291  0.57550050    -0.59900
N430        N  0.28014901  0.48510984  0.56223465    -0.05500
N431        N  0.30178947  0.47464188  0.57893716    -0.61100
N432        N  0.27879268  0.02176644  0.56306058    -0.07400
N433        N  0.30077847  0.03314371  0.57864493    -0.60100
N434        N  0.21144309  0.48559141  0.56052046    -0.05100
N435        N  0.18813445  0.47570718  0.57522486    -0.61200
Mn436      Mn  0.24638470  0.46029407  0.53761562     1.18400
C437        C  0.17289633  0.00857043  0.58613773     0.97100
C438        C  0.31538428  0.49909438  0.58957313     0.97800
N439        N  0.21225522  0.48333487  0.93351130    -0.07400
N440        N  0.19063352  0.47213057  0.91732069    -0.63700
N441        N  0.28054769  0.01887881  0.93487109    -0.06200
N442        N  0.30141866  0.02906972  0.91718701    -0.64400
N443        N  0.28033627  0.48271937  0.93443944    -0.06900
N444        N  0.30202936  0.47108504  0.91879115    -0.64000
N445        N  0.21223731  0.01935238  0.93468304    -0.05800
N446        N  0.18984630  0.02973883  0.91875447    -0.64700
Mn447      Mn  0.24580903  0.45944464  0.95905576     1.10700
C448        C  0.17596214  0.00510614  0.90872657     0.98300
C449        C  0.31615383  0.49479171  0.90745762     0.98400
N450        N  0.27902101  0.06841915  0.51228044    -0.06900
N451        N  0.30085099  0.08508446  0.52233882    -0.62300
N452        N  0.21268115  0.06598513  0.98456383    -0.06200
N453        N  0.19010987  0.08146848  0.97431218    -0.59000
N454        N  0.21062645  0.06738882  0.51092811    -0.07500
N455        N  0.18812221  0.08350043  0.52020874    -0.61900
N456        N  0.28109809  0.06637482  0.98583724    -0.06500
N457        N  0.30310304  0.08351092  0.97693560    -0.59000
Mn458      Mn  0.24474306  0.04539087  0.53763942     1.20200
Mn459      Mn  0.24683913  0.04352197  0.95926852     1.10100
Cl460      Cl  0.24626891  0.00254277  0.99785103    -0.87000
C461        C  0.31599312  0.09287979  0.00238355     0.95300
C462        C  0.17536847  0.08971917  0.99885486     0.95100
C463        C  0.35504667  0.38447257  0.02847623    -0.21300
C464        C  0.34429977  0.39437174  0.00104773    -0.07900
C465        C  0.35878160  0.38457069  0.97498549     0.13000
C466        C  0.38122016  0.36308688  0.97708997    -0.21400
C467        C  0.39000639  0.35110429  0.00435283    -0.07900
C468        C  0.37777176  0.36320892  0.03057825     0.12900
C469        C  0.38795167  0.35389575  0.06095143    -0.24800
H470        H  0.34497246  0.39272666  0.04853776     0.14200
H471        H  0.39135295  0.35494808  0.95700853     0.14300
C472        C  0.35093826  0.39614306  0.94468183    -0.24700
H473        H  0.37689622  0.36687885  0.07860364     0.04500
H474        H  0.41231345  0.35745724  0.06321250     0.07700
H475        H  0.40976195  0.35020983  0.55603621     0.07700
H476        H  0.35300615  0.42057105  0.94428656     0.07700
H477        H  0.29514455  0.35901896  0.46218342     0.07700
H478        H  0.36598975  0.38727055  0.92740486     0.04500
C479        C  0.37751711  0.14683003  0.52109808    -0.21300
C480        C  0.38545025  0.15885615  0.00143354    -0.10000
C481        C  0.37998908  0.14076098  0.97647331     0.13000
C482        C  0.35778637  0.11899111  0.97795218    -0.21400
C483        C  0.34097101  0.11443345  0.00364076    -0.07900
C484        C  0.35514379  0.12534149  0.52337759     0.12900
C485        C  0.34751442  0.11389636  0.55371257    -0.24800
H486        H  0.38789431  0.15499945  0.54114464     0.14200
H487        H  0.35329276  0.10554917  0.95857781     0.14300
C488        C  0.39753665  0.14377592  0.94830659    -0.24700
H489        H  0.36217000  0.12341515  0.57106493     0.04500
H490        H  0.35037924  0.08955356  0.55438855     0.07700
H491        H  0.32429689  0.11993262  0.55943574     0.07700
H492        H  0.42170694  0.14164760  0.95310184     0.07700
H493        H  0.39288429  0.16541719  0.93780932     0.07700
H494        H  0.39155860  0.12641755  0.93200731     0.04500
C495        C  0.11018548  0.36266957  0.97937828    -0.21300
C496        C  0.10805315  0.34493032  0.00471546    -0.07900
C497        C  0.12649672  0.35126441  0.02937107     0.13000
C498        C  0.14702919  0.37444947  0.02752062    -0.21400
C499        C  0.15022146  0.39116165  0.00164458    -0.07900
C500        C  0.13097484  0.38567402  0.97744990     0.12900
C501        C  0.13182549  0.40393262  0.94961424    -0.24800
H502        H  0.09574432  0.35824529  0.96068904     0.14200
H503        H  0.16158206  0.37874336  0.04615194     0.14300
C504        C  0.12780157  0.32935671  0.54935674    -0.24700
H505        H  0.11363962  0.39785544  0.93409100     0.04500
H506        H  0.14858494  0.40815366  0.43559766     0.07700
H507        H  0.12922132  0.42768326  0.95510685     0.07700
H508        H  0.13044146  0.30620064  0.54176675     0.07700
H509        H  0.10379533  0.33490512  0.06790216     0.07700
H510        H  0.14654309  0.33427206  0.56464110     0.04500
C511        C  0.11177686  0.14008521  0.97561143    -0.21300
C512        C  0.10734400  0.15585614  0.00189870    -0.07900
C513        C  0.12364097  0.14790308  0.02756455     0.13000
C514        C  0.14447091  0.12514111  0.02583182    -0.21400
C515        C  0.15017306  0.11054491  0.99919424    -0.07900
C516        C  0.13301709  0.11750794  0.97383003     0.12900
C517        C  0.13655348  0.10141498  0.94488125    -0.24800
H518        H  0.09892670  0.14578006  0.95617218     0.14200
H519        H  0.15732428  0.11961386  0.04530746     0.14300
C520        C  0.11526941  0.16393635  0.55265584    -0.24700
H521        H  0.11964238  0.10847169  0.92837268     0.04500
H522        H  0.13384303  0.07730206  0.94836531     0.07700
H523        H  0.16108875  0.11079655  0.43147357     0.07700
H524        H  0.09767268  0.16125908  0.06523787     0.07700
H525        H  0.12079275  0.18780315  0.55171566     0.07700
H526        H  0.12926379  0.15401760  0.57032002     0.04500
C527        C  0.36740533  0.47128338  0.84542124    -0.21300
C528        C  0.38752254  0.49493328  0.84493628    -0.07900
C529        C  0.37278982  0.03378383  0.85421961     0.13000
C530        C  0.35098747  0.03156715  0.87616760    -0.21400
C531        C  0.34131219  0.49321354  0.88675295    -0.07900
C532        C  0.34415422  0.47018699  0.86584637     0.12900
C533        C  0.32208272  0.44517458  0.86373728    -0.24800
H534        H  0.36918631  0.45401704  0.82895315     0.14200
H535        H  0.34450878  0.05127984  0.88811245     0.14300
C536        C  0.38619212  0.06370277  0.84816613    -0.24700
H537        H  0.32696433  0.43028940  0.84487509     0.04500
H538        H  0.29927939  0.45412178  0.86046107     0.07700
H539        H  0.33546526  0.94165014  0.89462588     0.07700
H540        H  0.40488320  0.55667257  0.84776920     0.07700
H541        H  0.41066646  0.06289062  0.85156157     0.07700
H542        H  0.37718567  0.08094789  0.86312059     0.04500
C543        C  0.13536006  0.03183125  0.88239561    -0.21300
C544        C  0.15044376  0.00513153  0.88778604    -0.07900
C545        C  0.14660244  0.46942848  0.86594001     0.13000
C546        C  0.12436035  0.47086261  0.84421582    -0.21400
C547        C  0.10792464  0.49675026  0.83922528    -0.07900
C548        C  0.11287245  0.03389499  0.86079205     0.12900
C549        C  0.09754593  0.06317445  0.85629280    -0.24800
H550        H  0.14156945  0.05133450  0.89469598     0.14200
H551        H  0.12038231  0.45169955  0.83040685     0.14300
C552        C  0.16396847  0.44107397  0.86905193    -0.24700
H553        H  0.10518509  0.07994555  0.87251756     0.04500
H554        H  0.07047654  0.54394115  0.85731805     0.07700
H555        H  0.10244455  0.07189736  0.83394730     0.07700
H556        H  0.16055861  0.43163452  0.89138125     0.07700
H557        H  0.18025165  0.95127695  0.87042059     0.07700
H558        H  0.15668511  0.42413881  0.85283657     0.04500
C559        C  0.13120606  0.98352258  0.61166852    -0.21300
C560        C  0.14633222  0.00992716  0.60561483    -0.07900
C561        C  0.13664176  0.03631999  0.61954401     0.13000
C562        C  0.11456972  0.03475499  0.64130915    -0.21400
C563        C  0.10159987  0.00780309  0.64946846    -0.07900
C564        C  0.10878859  0.98207873  0.63311796     0.12900
C565        C  0.09924437  0.44108099  0.63902344    -0.24800
H566        H  0.14224051  0.45354222  0.60038716     0.14200
H567        H  0.10828002  0.05476555  0.65290722     0.14300
C568        C  0.14974284  0.06618521  0.61258916    -0.24700
H569        H  0.10827143  0.42393264  0.62397314     0.04500
H570        H  0.06870528  0.95604391  0.63580463     0.07700
H571        H  0.10505692  0.43434363  0.66187230     0.07700
H572        H  0.14655337  0.07130421  0.58881068     0.07700
H573        H  0.17062517  0.55952869  0.61531242     0.07700
H574        H  0.13886076  0.08412773  0.62533953     0.04500
C575        C  0.34454718  0.47148150  0.62683767    -0.21300
C576        C  0.33971912  0.49817488  0.61179215    -0.07900
C577        C  0.34579669  0.03493475  0.62933579     0.13000
C578        C  0.36892223  0.03334168  0.65006608    -0.21400
C579        C  0.38687412  0.00809939  0.65266685    -0.07900
C580        C  0.36551549  0.46912652  0.64968002     0.12900
C581        C  0.36829152  0.43997165  0.66553217    -0.24800
H582        H  0.33118765  0.45234919  0.62128153     0.14200
H583        H  0.37223294  0.05159273  0.66510270     0.14300
C584        C  0.32647523  0.06219203  0.62904496    -0.24700
H585        H  0.35263836  0.42318933  0.65663492     0.04500
H586        H  0.36318880  0.44288470  0.68931785     0.07700
H587        H  0.39110680  0.43107017  0.66284031     0.07700
H588        H  0.30294379  0.05605122  0.63329250     0.07700
H589        H  0.32833803  0.07353435  0.60741966     0.07700
H590        H  0.33324016  0.07828370  0.64629640     0.04500
C591        C  0.51939933  0.11822607  0.86304880    -0.21300
C592        C  0.49492587  0.11667337  0.84369754    -0.07900
C593        C  0.47053196  0.13609816  0.84820770     0.13000
C594        C  0.97043179  0.15467592  0.87165957    -0.21400
C595        C  0.99640640  0.15775447  0.88869956    -0.07900
C596        C  0.02047020  0.13812918  0.88391983     0.12900
C597        C  0.04846392  0.13908237  0.90237393    -0.24800
H598        H  0.53782060  0.10310233  0.86005084     0.14200
H599        H  0.95190610  0.16952580  0.87532607     0.14300
C600        C  0.44342237  0.13617760  0.82844651    -0.24700
H601        H  0.56243163  0.12024388  0.90171061     0.04500
H602        H  0.53960036  0.13656390  0.92976241     0.07700
H603        H  0.06046066  0.16013027  0.89857130     0.07700
H604        H  0.43144803  0.11485503  0.83038191     0.07700
H605        H  0.94574197  0.13719655  0.80709874     0.07700
H606        H  0.92416066  0.15051236  0.83748697     0.04500
C607        C  0.02316833  0.35464827  0.87734230    -0.21300
C608        C  0.50097899  0.34677669  0.89123746    -0.07900
C609        C  0.47705017  0.36658688  0.88636323     0.13000
C610        C  0.47881235  0.38693465  0.86305269    -0.21400
C611        C  0.50380209  0.38827199  0.84451826    -0.07900
C612        C  0.02492449  0.37572980  0.85467350     0.12900
C613        C  0.05536603  0.38612298  0.84529940    -0.24800
H614        H  0.04363247  0.34640965  0.88711387     0.14200
H615        H  0.46022573  0.40172952  0.85903589     0.14300
C616        C  0.44975037  0.36687076  0.90568809    -0.24700
H617        H  0.07336477  0.37597962  0.85879229     0.04500
H618        H  0.05707068  0.41042275  0.84799896     0.07700
H619        H  0.05947552  0.37988326  0.82197411     0.07700
H620        H  0.45639430  0.36956649  0.92916947     0.07700
H621        H  0.43701740  0.34609405  0.90286942     0.07700
H622        H  0.43451001  0.38534815  0.89996021     0.04500
C623        C  0.01643246  0.38091973  0.63767371    -0.21300
C624        C  0.98952458  0.38762523  0.65182876    -0.07900
C625        C  0.46970504  0.37870139  0.63790937     0.13000
C626        C  0.47197582  0.35730817  0.61561448    -0.21400
C627        C  0.49940665  0.34434595  0.60825439    -0.07900
C628        C  0.01808545  0.35952260  0.61543487     0.12900
C629        C  0.04821099  0.35343359  0.60202427    -0.24800
H630        H  0.03661324  0.39198470  0.64452341     0.14200
H631        H  0.45197843  0.35042092  0.60407043     0.14300
C632        C  0.43954446  0.39180643  0.64423831    -0.24700
H633        H  0.06563008  0.36852558  0.61072260     0.04500
H634        H  0.04722633  0.35660829  0.57773305     0.07700
H635        H  0.05544451  0.33061678  0.60738569     0.07700
H636        H  0.44049156  0.41616547  0.64169508     0.07700
H637        H  0.43242389  0.38594890  0.66692531     0.07700
H638        H  0.42221782  0.38341847  0.62882653     0.04500
C639        C  0.01621522  0.13790116  0.65376512    -0.21300
C640        C  0.99163934  0.11899230  0.65618821    -0.07900
C641        C  0.47110767  0.13230152  0.64458137     0.13000
C642        C  0.47324784  0.15306506  0.62178484    -0.21400
C643        C  0.99449913  0.16172724  0.61070534    -0.07900
C644        C  0.01796990  0.15930892  0.63155888     0.12900
C645        C  0.04455700  0.17965340  0.63144410    -0.24800
H646        H  0.03422492  0.13619398  0.66973081     0.14200
H647        H  0.45310948  0.16380291  0.61405948     0.14300
C648        C  0.44061801  0.12598711  0.65700285    -0.24700
H649        H  0.05962026  0.17550937  0.65050542     0.04500
H650        H  0.03703865  0.20296871  0.63284608     0.07700
H651        H  0.05779796  0.17620256  0.61110081     0.07700
H652        H  0.44001944  0.13177914  0.68080622     0.07700
H653        H  0.43497789  0.10234433  0.65381235     0.07700
H654        H  0.42295514  0.13910661  0.64586006     0.04500
N655        N  0.05764803  0.98292602  0.21186661    -0.07200
N656        N  0.07362350  0.97244310  0.18993609    -0.59300
N657        N  0.06071206  0.52029655  0.28133851    -0.06800
N658        N  0.07849944  0.53088533  0.30196467    -0.61400
N659        N  0.06138104  0.98389119  0.27948597    -0.06400
N660        N  0.07918612  0.97435161  0.30069268    -0.59300
N661        N  0.06089348  0.51895471  0.21379239    -0.06100
N662        N  0.07666694  0.52891415  0.19140692    -0.61800
C663        C  0.08649553  0.50414722  0.17784309     0.95000
C664        C  0.08933159  0.99939200  0.31365156     0.94800
N665        N  0.47983631  0.57105735  0.27930577    -0.07300
N666        N  0.46912209  0.58802525  0.30043330    -0.59900
N667        N  0.01198990  0.56755447  0.21236144    -0.05500
N668        N  0.02273442  0.58284890  0.19009764    -0.61100
N669        N  0.47933718  0.56897365  0.21130118    -0.07400
N670        N  0.46884312  0.58413410  0.18863342    -0.60100
N671        N  0.01070720  0.56917517  0.28040076    -0.05100
N672        N  0.02024561  0.58599492  0.30230546    -0.61200
Mn673      Mn  0.03680356  0.54473722  0.24711797     1.18400
C674        C  0.49356839  0.59947830  0.31364783     0.97100
C675        C  0.99817806  0.59184954  0.17526637     0.97800
N676        N  0.01308132  0.93419491  0.28189325    -0.07400
N677        N  0.02498891  0.91935714  0.30395479    -0.63700
N678        N  0.47776588  0.93425623  0.21542406    -0.06200
N679        N  0.46652682  0.91858660  0.19342642    -0.64400
N680        N  0.00966005  0.93299685  0.21392307    -0.06900
N681        N  0.01900539  0.91652208  0.19173584    -0.64000
N682        N  0.48161515  0.93466200  0.28366299    -0.05800
N683        N  0.47279901  0.91841635  0.30618721    -0.64700
Mn684      Mn  0.03613579  0.95781112  0.24676083     1.10700
C685        C  0.49853542  0.90830107  0.31809464     0.98300
C686        C  0.99361712  0.90583188  0.17945391     0.98400
N687        N  0.43141459  0.51900970  0.21298743    -0.06900
N688        N  0.41475703  0.52821354  0.19076412    -0.62300
N689        N  0.43226475  0.98401258  0.28616101    -0.06200
N690        N  0.41652606  0.97486482  0.30901985    -0.59000
N691        N  0.43229436  0.52036019  0.28109306    -0.07500
N692        N  0.41636974  0.53030313  0.30345152    -0.61900
N693        N  0.42857690  0.98304168  0.21845811    -0.06500
N694        N  0.41129427  0.97232827  0.19753521    -0.59000
Mn695      Mn  0.45485670  0.54558877  0.24617201     1.20200
Mn696      Mn  0.45427155  0.95818386  0.25108130     1.10100
Cl697      Cl  0.99728790  0.50466847  0.24712793    -0.87000
C698        C  0.40533791  0.50293203  0.17785520     0.95300
C699        C  0.40736503  0.00026112  0.32207578     0.95100
N700        N  0.48211089  0.71777148  0.05684636    -0.07200
N701        N  0.47236657  0.69583100  0.07334638    -0.59300
N702        N  0.01199213  0.78281475  0.05873006    -0.06800
N703        N  0.02189695  0.80430788  0.07577155    -0.61400
N704        N  0.48105311  0.78590382  0.05770292    -0.06400
N705        N  0.47045303  0.80771956  0.07393240    -0.59300
N706        N  0.01433650  0.71506770  0.05635187    -0.06100
N707        N  0.02578037  0.69361808  0.07241188    -0.61800
C708        C  0.00169454  0.67915769  0.08280479     0.95000
C709        C  0.49506729  0.82190004  0.08396284     0.94800
N710        N  0.06358258  0.78489118  0.48780288    -0.07300
N711        N  0.08069000  0.80668657  0.47867022    -0.59900
N712        N  0.06227258  0.71815926  0.00704709    -0.05500
N713        N  0.07868187  0.69604025  0.01659682    -0.61100
N714        N  0.06201429  0.71709690  0.48580429    -0.07400
N715        N  0.07763782  0.69482136  0.47531888    -0.60100
N716        N  0.05999326  0.78552280  0.00907179    -0.05100
N717        N  0.07636907  0.80694960  0.02003691    -0.61200
Mn718      Mn  0.03784691  0.75042876  0.03342338     1.18400
C719        C  0.09072322  0.81909945  0.50400669     0.97100
C720        C  0.08682617  0.68015905  0.49976536     0.97800
N721        N  0.43236833  0.78524282  0.00857878    -0.07400
N722        N  0.41615207  0.80684340  0.01941545    -0.63700
N723        N  0.43151959  0.71961077  0.48587228    -0.06200
N724        N  0.41551819  0.69781769  0.47477147    -0.64400
N725        N  0.43298808  0.71778034  0.00725880    -0.06900
N726        N  0.41564292  0.69639850  0.01685841    -0.64000
N727        N  0.43292913  0.78763044  0.48961725    -0.05800
N728        N  0.41745382  0.81060406  0.48043109    -0.64700
Mn729      Mn  0.45640536  0.75154443  0.03329632     1.10700
C730        C  0.40772523  0.82348747  0.50560075     0.98300
C731        C  0.40571653  0.68310926  0.49887547     0.98400
N732        N  0.01361518  0.71944014  0.43590514    -0.06900
N733        N  0.02361232  0.69788042  0.41899466    -0.62300
N734        N  0.48199729  0.78912298  0.44059082    -0.06200
N735        N  0.47218787  0.81100931  0.42396445    -0.59000
N736        N  0.01484604  0.78756302  0.43846325    -0.07500
N737        N  0.02555471  0.81005839  0.42340090    -0.61900
N738        N  0.48099578  0.72118562  0.43658517    -0.06500
N739        N  0.47085806  0.70063824  0.41842946    -0.59000
Mn740      Mn  0.03929204  0.75225703  0.46122926     1.20200
Mn741      Mn  0.45599220  0.75438631  0.46246851     1.10100
Cl742      Cl  0.49552896  0.75155486  0.50262084    -0.87000
C743        C  0.99865226  0.68502312  0.40817315     0.95300
C744        C  0.49732514  0.82416311  0.41419376     0.95100
N745        N  0.28072273  0.94072839  0.48897771    -0.07200
N746        N  0.30243199  0.92396555  0.47913903    -0.59300
N747        N  0.21190116  0.93874926  0.01016096    -0.06800
N748        N  0.19022826  0.92168762  0.01966089    -0.61400
N749        N  0.21262707  0.93993467  0.48779903    -0.06400
N750        N  0.19145143  0.92252683  0.47772496    -0.59300
N751        N  0.28021758  0.93866155  0.01048533    -0.06100
N752        N  0.30217414  0.92169401  0.01988483    -0.61800
C753        C  0.31601015  0.91387539  0.50375596     0.95000
C754        C  0.17772978  0.91285398  0.50237056     0.94800
N755        N  0.21111065  0.51925578  0.05837163    -0.07300
N756        N  0.18921526  0.53049622  0.07412791    -0.59900
N757        N  0.27961059  0.98596409  0.06130008    -0.05500
N758        N  0.30079316  0.97531456  0.07846593    -0.61100
N759        N  0.27963771  0.51879202  0.05938444    -0.07400
N760        N  0.30180729  0.52943797  0.07538146    -0.60100
N761        N  0.21132958  0.98611830  0.06036883    -0.05100
N762        N  0.18900007  0.97580900  0.07617801    -0.61200
Mn763      Mn  0.24581439  0.96158145  0.03631078     1.18400
C764        C  0.17549854  0.50658552  0.08566088     0.97100
C765        C  0.31404761  0.99973038  0.08958267     0.97800
N766        N  0.21264349  0.98639937  0.43653527    -0.07400
N767        N  0.19193265  0.97506892  0.41921562    -0.63700
N768        N  0.28361998  0.51514333  0.43617060    -0.06200
N769        N  0.30573944  0.52500826  0.41979442    -0.64400
N770        N  0.28096932  0.98720929  0.43838343    -0.06900
N771        N  0.30368571  0.97647445  0.42348266    -0.64000
N772        N  0.21554139  0.51593586  0.43363475    -0.05800
N773        N  0.19518455  0.52638151  0.41537500    -0.64700
Mn774      Mn  0.24668860  0.96291318  0.46233712     1.10700
C775        C  0.18212538  0.50184313  0.40425798     0.98300
C776        C  0.31754823  0.00074138  0.41296768     0.98400
N777        N  0.27985961  0.56500222  0.00816614    -0.06900
N778        N  0.30022373  0.58317962  0.01838348    -0.62300
N779        N  0.21398950  0.56375773  0.48310280    -0.06200
N780        N  0.19193993  0.57954644  0.47214146    -0.59000
N781        N  0.21210093  0.56525286  0.00647397    -0.07500
N782        N  0.19044306  0.58285044  0.01508469    -0.61900
N783        N  0.28228358  0.56377280  0.48537888    -0.06500
N784        N  0.30422688  0.58065092  0.47607048    -0.59000
Mn785      Mn  0.24562020  0.54276836  0.03377451     1.20200
Mn786      Mn  0.24894545  0.54041525  0.45892645     1.10100
Cl787      Cl  0.24747117  0.50039771  0.49829239    -0.87000
C788        C  0.31689887  0.59077842  0.50124819     0.95300
C789        C  0.17714214  0.58923287  0.49619077     0.95100
C790        C  0.35805006  0.88805892  0.52919105    -0.21300
C791        C  0.34074091  0.89194552  0.50354181    -0.07900
C792        C  0.34693762  0.87418483  0.47844928     0.13000
C793        C  0.36950724  0.85297432  0.48001866    -0.21400
C794        C  0.38606716  0.84829900  0.50585373    -0.07900
C795        C  0.38070794  0.86656048  0.53069108     0.12900
C796        C  0.39897575  0.86406175  0.55856478    -0.24800
H797        H  0.35375069  0.90185216  0.54827534     0.14200
H798        H  0.37361039  0.83920187  0.46088880     0.14300
C799        C  0.32945212  0.87626102  0.45000257    -0.24700
H800        H  0.39293953  0.88136374  0.57486900     0.04500
H801        H  0.42297431  0.86665430  0.55333477     0.07700
H802        H  0.37755406  0.82476566  0.05615014     0.07700
H803        H  0.33251442  0.89834778  0.43994534     0.07700
H804        H  0.32014624  0.88601126  0.93334776     0.07700
H805        H  0.33689822  0.85979269  0.43342101     0.04500
C806        C  0.36779793  0.65380421  0.01810879    -0.21300
C807        C  0.38495653  0.65769521  0.49870833    -0.10000
C808        C  0.37687969  0.64196658  0.47289413     0.13000
C809        C  0.35534474  0.61964934  0.47486387    -0.21400
C810        C  0.34150976  0.61260004  0.50176336    -0.07900
C811        C  0.34539532  0.63245648  0.01986491     0.12900
C812        C  0.33013995  0.62830855  0.04921842    -0.24800
H813        H  0.37348779  0.66627207  0.03777896     0.14200
H814        H  0.34889347  0.60795406  0.45495815     0.14300
C815        C  0.39064151  0.64823460  0.44321864    -0.24700
H816        H  0.33887820  0.64358043  0.06636175     0.04500
H817        H  0.33392367  0.60554752  0.05738082     0.07700
H818        H  0.30593271  0.63275480  0.04691358     0.07700
H819        H  0.41521625  0.64589841  0.44464543     0.07700
H820        H  0.38468922  0.67084263  0.43584651     0.07700
H821        H  0.38259327  0.63268484  0.42599191     0.04500
C822        C  0.11458418  0.86165255  0.47959324    -0.21300
C823        C  0.11188660  0.84408274  0.50496992    -0.07900
C824        C  0.13013463  0.85013085  0.52981896     0.13000
C825        C  0.15071026  0.87327731  0.52833366    -0.21400
C826        C  0.15400575  0.89027242  0.50266621    -0.07900
C827        C  0.13541044  0.88459985  0.47801142     0.12900
C828        C  0.13693049  0.90258811  0.45002208    -0.24800
H829        H  0.10046495  0.85724926  0.46068843     0.14200
H830        H  0.16496929  0.87753729  0.54716696     0.14300
C831        C  0.12116407  0.83734288  0.05155825    -0.24700
H832        H  0.11927465  0.89622347  0.43402660     0.04500
H833        H  0.16147295  0.89531559  0.93110588     0.07700
H834        H  0.13396497  0.92637251  0.45517348     0.07700
H835        H  0.12603877  0.81347270  0.04884928     0.07700
H836        H  0.10699569  0.83399008  0.56819495     0.07700
H837        H  0.13649375  0.84593639  0.06881956     0.04500
C838        C  0.12106412  0.64773531  0.47202879    -0.21300
C839        C  0.10731847  0.65444072  0.49899041    -0.07900
C840        C  0.11422379  0.63707355  0.52413409     0.13000
C841        C  0.13627719  0.61525059  0.52201113    -0.21400
C842        C  0.15154267  0.60999945  0.49551565    -0.07900
C843        C  0.14292088  0.62578581  0.46981239     0.12900
C844        C  0.15683108  0.62050360  0.43999664    -0.24800
H845        H  0.11532295  0.66038969  0.45249531     0.14200
H846        H  0.14206020  0.60256299  0.54152160     0.14300
C847        C  0.09604947  0.64124472  0.04330629    -0.24700
H848        H  0.14690790  0.63479420  0.42262102     0.04500
H849        H  0.15319921  0.59725170  0.43313152     0.07700
H850        H  0.18865185  0.63202145  0.93875835     0.07700
H851        H  0.07418882  0.63896026  0.55009156     0.07700
H852        H  0.10095269  0.66233654  0.05475401     0.07700
H853        H  0.10144952  0.62317390  0.05901852     0.04500
C854        C  0.38201314  0.97608709  0.36416261    -0.21300
C855        C  0.38658976  0.00174204  0.34740099    -0.07900
C856        C  0.38260634  0.52803463  0.36281319     0.13000
C857        C  0.36087628  0.52549989  0.38489272    -0.21400
C858        C  0.34294197  0.00040314  0.39221184    -0.07900
C859        C  0.36044471  0.97500891  0.38649149     0.12900
C860        C  0.35681262  0.94669642  0.40358743    -0.24800
H861        H  0.39499231  0.95650680  0.35938120     0.14200
H862        H  0.35734568  0.54382280  0.39994755     0.14300
C863        C  0.40096546  0.55581384  0.36129253    -0.24700
H864        H  0.37382520  0.93001617  0.39740147     0.04500
H865        H  0.33467733  0.93688411  0.39890713     0.07700
H866        H  0.33396558  0.43660594  0.39099094     0.07700
H867        H  0.36822922  0.05318437  0.31419272     0.07700
H868        H  0.42502603  0.55024292  0.36243999     0.07700
H869        H  0.39592238  0.57107349  0.37981952     0.04500
C870        C  0.14471263  0.52956274  0.37518124    -0.21300
C871        C  0.15833796  0.50235817  0.38157191    -0.07900
C872        C  0.14829352  0.97214746  0.36721982     0.13000
C873        C  0.12659518  0.97354318  0.34487180    -0.21400
C874        C  0.11131279  0.99983178  0.33833711    -0.07900
C875        C  0.12232693  0.53204011  0.35367718     0.12900
C876        C  0.10911055  0.56212219  0.34786783    -0.24800
H877        H  0.15163838  0.54912429  0.38702471     0.14200
H878        H  0.12195354  0.95394448  0.33203652     0.14300
C879        C  0.16438805  0.94328474  0.37189477    -0.24700
H880        H  0.11871806  0.57925506  0.36261610     0.04500
H881        H  0.07747836  0.05146179  0.35247443     0.07700
H882        H  0.11380331  0.56898159  0.32481957     0.07700
H883        H  0.16005511  0.93491738  0.39448766     0.07700
H884        H  0.18799495  0.44855166  0.36550687     0.07700
H885        H  0.15683860  0.92601632  0.35616837     0.04500
C886        C  0.13732868  0.48038063  0.11483664    -0.21300
C887        C  0.15042748  0.50738705  0.10699262    -0.07900
C888        C  0.14019113  0.53362832  0.12073036     0.13000
C889        C  0.11868284  0.53164733  0.14302248    -0.21400
C890        C  0.10698058  0.50437783  0.15214580    -0.07900
C891        C  0.11581667  0.47840317  0.13706842     0.12900
C892        C  0.11120006  0.94005650  0.15187879    -0.24800
H893        H  0.15179285  0.95266349  0.11118772     0.14200
H894        H  0.11152226  0.55175686  0.15399651     0.14300
C895        C  0.15197370  0.56377412  0.11278490    -0.24700
H896        H  0.12409914  0.92246829  0.14056919     0.04500
H897        H  0.07844038  0.44889637  0.14164230     0.07700
H898        H  0.11663436  0.93860513  0.17575692     0.07700
H899        H  0.14770540  0.56836619  0.08906953     0.07700
H900        H  0.16545493  0.06234790  0.11131158     0.07700
H901        H  0.14100385  0.58156221  0.12568661     0.04500
C902        C  0.33857305  0.97423225  0.13110642    -0.21300
C903        C  0.33747455  0.99892827  0.11246691    -0.07900
C904        C  0.35967083  0.52883409  0.11246896     0.13000
C905        C  0.38138082  0.52704792  0.13477652    -0.21400
C906        C  0.38393643  0.50201824  0.15294047    -0.07900
C907        C  0.35905693  0.97244709  0.15438518     0.12900
C908        C  0.35801953  0.94573958  0.17426604    -0.24800
H909        H  0.32277144  0.95646805  0.12792524     0.14200
H910        H  0.39625144  0.54557114  0.13831462     0.14300
C911        C  0.35831876  0.55623733  0.09365615    -0.24700
H912        H  0.33972423  0.93044165  0.16807360     0.04500
H913        H  0.35424182  0.95273273  0.19745037     0.07700
H914        H  0.37916210  0.93317322  0.17260164     0.07700
H915        H  0.33702608  0.56800059  0.09753674     0.07700
H916        H  0.36028477  0.55022315  0.06997574     0.07700
H917        H  0.37664488  0.57182986  0.09899444     0.04500
C918        C  0.51977361  0.62652582  0.35394790    -0.21300
C919        C  0.49307887  0.62109845  0.33861540    -0.07900
C920        C  0.46714156  0.63686838  0.34713778     0.13000
C921        C  0.97104244  0.65488405  0.37129653    -0.21400
C922        C  0.99805265  0.66064508  0.38595153    -0.07900
C923        C  0.02341449  0.64354860  0.37845187     0.12900
C924        C  0.05285739  0.64692901  0.39420865    -0.24800
H925        H  0.53957691  0.61434983  0.34790676     0.14200
H926        H  0.95144434  0.66749133  0.37712066     0.14300
C927        C  0.43749960  0.63264103  0.33201733    -0.24700
H928        H  0.56810397  0.63568817  0.38418388     0.04500
H929        H  0.54839536  0.64751418  0.41641085     0.07700
H930        H  0.06224682  0.66916280  0.38994722     0.07700
H931        H  0.42981258  0.60960756  0.33506710     0.07700
H932        H  0.94101848  0.63489103  0.30979860     0.07700
H933        H  0.92182469  0.64456516  0.34300309     0.04500
C934        C  0.02725270  0.85232167  0.37527195    -0.21300
C935        C  0.49802377  0.84746672  0.39125729    -0.07900
C936        C  0.47518396  0.86875439  0.38791146     0.13000
C937        C  0.47640796  0.88863683  0.36414471    -0.21400
C938        C  0.49987853  0.88795912  0.34371575    -0.07900
C939        C  0.02840448  0.87231097  0.35176859     0.12900
C940        C  0.05631240  0.87314297  0.33332981    -0.24800
H941        H  0.04622063  0.83803300  0.37929505     0.14200
H942        H  0.45879784  0.90476359  0.36142799     0.14300
C943        C  0.44980645  0.87118580  0.40950681    -0.24700
H944        H  0.07325685  0.85705670  0.34118667     0.04500
H945        H  0.06658180  0.89538770  0.33456655     0.07700
H946        H  0.05095174  0.86749910  0.31006435     0.07700
H947        H  0.45870778  0.87394670  0.43224096     0.07700
H948        H  0.43564980  0.85116843  0.40841845     0.07700
H949        H  0.43529512  0.89045085  0.40459213     0.04500
C950        C  0.01977989  0.87930686  0.13911710    -0.21300
C951        C  0.99303279  0.88459650  0.15422996    -0.07900
C952        C  0.46418957  0.87573122  0.14060693     0.13000
C953        C  0.46658381  0.85473324  0.11783045    -0.21400
C954        C  0.49421941  0.84692659  0.10551440    -0.07900
C955        C  0.02181832  0.85812461  0.11655533     0.12900
C956        C  0.05127534  0.85448156  0.10112735    -0.24800
H957        H  0.03950093  0.89170408  0.14516321     0.14200
H958        H  0.44660803  0.84370753  0.11018010     0.14300
C959        C  0.43368049  0.88241508  0.15269329    -0.24700
H960        H  0.06803703  0.87075561  0.10892547     0.04500
H961        H  0.04826539  0.85788928  0.07702406     0.07700
H962        H  0.06050940  0.83218341  0.10552087     0.07700
H963        H  0.42873378  0.90630196  0.15015473     0.07700
H964        H  0.43254095  0.87600626  0.17630770     0.07700
H965        H  0.41595660  0.87004238  0.14084067     0.04500
C966        C  0.02467754  0.62971973  0.14664688    -0.21300
C967        C  0.99923239  0.61209306  0.14973498    -0.07900
C968        C  0.46912877  0.62055008  0.13126996     0.13000
C969        C  0.47139402  0.64241903  0.10944725    -0.21400
C970        C  0.00274350  0.65483399  0.10455047    -0.07900
C971        C  0.02684612  0.65104082  0.12445169     0.12900
C972        C  0.05447526  0.66994134  0.12351724    -0.24800
H973        H  0.04282022  0.62747920  0.16239237     0.14200
H974        H  0.45196193  0.64755986  0.09602612     0.14300
C975        C  0.44005741  0.60426386  0.13454894    -0.24700
H976        H  0.07040270  0.66423482  0.14145217     0.04500
H977        H  0.04841286  0.69354264  0.12625376     0.07700
H978        H  0.06622387  0.66659819  0.10226951     0.07700
H979        H  0.42995768  0.60923263  0.15629879     0.07700
H980        H  0.44388513  0.58014656  0.13237549     0.07700
H981        H  0.42365735  0.61084337  0.11733850     0.04500
N982        N  0.05936083  0.99255052  0.71368606    -0.07200
N983        N  0.07408647  0.98266352  0.69059635    -0.59300
N984        N  0.06024191  0.51158596  0.77851297    -0.06800
N985        N  0.07664312  0.52168285  0.80047579    -0.61400
N986        N  0.06023198  0.99310981  0.78185838    -0.06400
N987        N  0.07579862  0.98358380  0.80461266    -0.59300
N988        N  0.05800545  0.51136178  0.71045762    -0.06100
N989        N  0.07310031  0.52135886  0.68762506    -0.61800
C990        C  0.08201281  0.49664816  0.67330548     0.95000
C991        C  0.08449571  0.00854255  0.81862329     0.94800
N992        N  0.48233722  0.56068898  0.78206278    -0.07300
N993        N  0.47218590  0.57796457  0.80312337    -0.59900
N994        N  0.00961980  0.56071159  0.71168091    -0.05500
N995        N  0.01954159  0.57702403  0.68973945    -0.61100
N996        N  0.47920548  0.55969181  0.71428976    -0.07400
N997        N  0.46775506  0.57540349  0.69247043    -0.60100
N998        N  0.01138264  0.56152438  0.77981198    -0.05100
N999        N  0.02182756  0.57820204  0.80145474    -0.61200
Mn1000     Mn  0.03566191  0.53701175  0.74519161     1.18400
C1001       C  0.49688090  0.59000531  0.81519747     0.97100
C1002       C  0.99450136  0.58721785  0.67649176     0.97800
N1003       N  0.01335905  0.94185285  0.78249548    -0.07400
N1004       N  0.02412762  0.92480785  0.80360500    -0.63700
N1005       N  0.48099473  0.94149113  0.71511679    -0.06200
N1006       N  0.47018264  0.92286139  0.69547376    -0.64400
N1007       N  0.01275953  0.94065400  0.71487119    -0.06900
N1008       N  0.02301693  0.92200798  0.69488129    -0.64000
N1009       N  0.48130218  0.94270162  0.78282162    -0.05800
N1010       N  0.47143094  0.92585977  0.80453951    -0.64700
Mn1011     Mn  0.03742301  0.96646231  0.74819172     1.10700
C1012       C  0.49667729  0.91545918  0.81734971     0.98300
C1013       C  0.99806279  0.90988642  0.68307009     0.98400
N1014       N  0.43121668  0.50984999  0.71715401    -0.06900
N1015       N  0.41384556  0.51945946  0.69569290    -0.62300
N1016       N  0.43232762  0.99247318  0.78145007    -0.06200
N1017       N  0.41450734  0.98284936  0.80236917    -0.59000
N1018       N  0.43469190  0.51048054  0.78487384    -0.07500
N1019       N  0.41861750  0.52042101  0.80705926    -0.61900
N1020       N  0.43343249  0.99208079  0.71370759    -0.06500
N1021       N  0.41749545  0.98227344  0.69125127    -0.59000
Mn1022     Mn  0.45612324  0.53586472  0.74963160     1.20200
Mn1023     Mn  0.45622847  0.96655388  0.74833942     1.10100
Cl1024     Cl  0.99544589  0.49760022  0.74648950    -0.87000
C1025       C  0.40374570  0.49444376  0.68276966     0.95300
C1026       C  0.40409164  0.00784498  0.81506963     0.95100
N1027       N  0.47968487  0.71423758  0.56425421    -0.07200
N1028       N  0.46930255  0.69187431  0.57989558    -0.59300
N1029       N  0.01372227  0.78383855  0.56530066    -0.06800
N1030       N  0.02450474  0.80441948  0.58292667    -0.61400
N1031       N  0.48126997  0.78208203  0.56836929    -0.06400
N1032       N  0.47154573  0.80324916  0.58587725    -0.59300
N1033       N  0.01236627  0.71627330  0.56307821    -0.06100
N1034       N  0.02259256  0.69426235  0.57912320    -0.61800
C1035       C  0.99786236  0.68082288  0.58929805     0.95000
C1036       C  0.49675155  0.81558821  0.59680294     0.94800
N1037       N  0.06001295  0.78644520  0.98009054    -0.07300
N1038       N  0.07653136  0.80861098  0.97075913    -0.59900
N1039       N  0.06168699  0.71635646  0.51479131    -0.05500
N1040       N  0.07710158  0.69357568  0.52460043    -0.61100
N1041       N  0.06206310  0.71885821  0.97807014    -0.07400
N1042       N  0.07831779  0.69719851  0.96727257    -0.60100
N1043       N  0.06308126  0.78402584  0.51678012    -0.05100
N1044       N  0.07978647  0.80513958  0.52797279    -0.61200
Mn1045     Mn  0.03837939  0.75012609  0.54060716     1.18400
C1046       C  0.08661876  0.82122973  0.99599546     0.97100
C1047       C  0.08840217  0.68300951  0.99160870     0.97800
N1048       N  0.43270257  0.78629633  0.51861700    -0.07400
N1049       N  0.41699512  0.80832508  0.52968462    -0.63700
N1050       N  0.43308578  0.71828036  0.97824255    -0.06200
N1051       N  0.41584585  0.69730422  0.96756192    -0.64400
N1052       N  0.43139547  0.71847140  0.51485590    -0.06900
N1053       N  0.41547910  0.69592994  0.52403614    -0.64000
N1054       N  0.43213874  0.78592423  0.97959112    -0.05800
N1055       N  0.41563273  0.80814208  0.97015518    -0.64700
Mn1056     Mn  0.45539357  0.75030492  0.54220264     1.10700
C1057       C  0.40582232  0.82108836  0.99531773     0.98300
C1058       C  0.40520407  0.68364449  0.99184025     0.98400
N1059       N  0.01286230  0.71819236  0.92946076    -0.06900
N1060       N  0.02388609  0.69653277  0.91336171    -0.62300
N1061       N  0.48129999  0.78744640  0.93095603    -0.06200
N1062       N  0.47072794  0.80999892  0.91572833    -0.59000
N1063       N  0.01051522  0.78599289  0.93137295    -0.07500
N1064       N  0.02020081  0.80819211  0.91532722    -0.61900
N1065       N  0.48266630  0.71920914  0.92925510    -0.06500
N1066       N  0.47314809  0.69727154  0.91250497    -0.59000
Mn1067     Mn  0.03708737  0.75247751  0.95399236     1.20200
Mn1068     Mn  0.45651848  0.75266050  0.95368615     1.10100
Cl1069     Cl  0.49633541  0.75254825  0.99366897    -0.87000
C1070       C  0.99961373  0.68184571  0.90345610     0.95300
C1071       C  0.49545203  0.82429022  0.90658804     0.95100
N1072       N  0.28009485  0.93979331  0.98150929    -0.07200
N1073       N  0.30189358  0.92370749  0.97063747    -0.59300
N1074       N  0.21221820  0.94078119  0.51678895    -0.06800
N1075       N  0.19067116  0.92392447  0.52703758    -0.61400
N1076       N  0.21189729  0.93974914  0.98120261    -0.06400
N1077       N  0.19022997  0.92332630  0.97037763    -0.59300
N1078       N  0.28076672  0.94126730  0.51798240    -0.06100
N1079       N  0.30266079  0.92460846  0.52840339    -0.61800
C1080       C  0.31564282  0.91253933  0.99474439     0.95000
C1081       C  0.17672400  0.91229208  0.99462658     0.94800
N1082       N  0.21162584  0.51457731  0.56045767    -0.07300
N1083       N  0.18856893  0.52496081  0.57506681    -0.59900
N1084       N  0.27925767  0.99280051  0.56462882    -0.05500
N1085       N  0.30166185  0.98387431  0.58131066    -0.61100
N1086       N  0.28019910  0.51411609  0.56263904    -0.07400
N1087       N  0.30193791  0.52394711  0.57964103    -0.60100
N1088       N  0.21034315  0.99224350  0.56324067    -0.05100
N1089       N  0.18709111  0.98320580  0.57859692    -0.61200
Mn1090     Mn  0.24566272  0.96598888  0.54164655     1.18400
C1091       C  0.17396131  0.50056681  0.58421071     0.97100
C1092       C  0.31485439  0.00931788  0.58998118     0.97800
N1093       N  0.21205614  0.99037021  0.93448779    -0.07400
N1094       N  0.18971199  0.98046683  0.91852876    -0.63700
N1095       N  0.28107439  0.51167248  0.93289795    -0.06200
N1096       N  0.30334315  0.52038978  0.91612805    -0.64400
N1097       N  0.28004356  0.98990878  0.93424151    -0.06900
N1098       N  0.30056821  0.97979614  0.91624584    -0.64000
N1099       N  0.21256776  0.51225947  0.93142305    -0.05800
N1100       N  0.19097937  0.52132084  0.91373265    -0.64700
Mn1101     Mn  0.24603042  0.96433195  0.95718566     1.10700
C1102       C  0.17748551  0.49598815  0.90503095     0.98300
C1103       C  0.31379964  0.00435768  0.90571289     0.98400
N1104       N  0.28139026  0.56353758  0.51434644    -0.06900
N1105       N  0.30272265  0.58022727  0.52533173    -0.62300
N1106       N  0.21277933  0.56374205  0.97750922    -0.06200
N1107       N  0.19163806  0.58019832  0.96581551    -0.59000
N1108       N  0.21295023  0.56361097  0.51207875    -0.07500
N1109       N  0.19011526  0.57937990  0.52139685    -0.61900
N1110       N  0.28071606  0.56388367  0.97919465    -0.06500
N1111       N  0.30180662  0.58152587  0.96916214    -0.59000
Mn1112     Mn  0.24655608  0.53970423  0.53820048     1.20200
Mn1113     Mn  0.24690822  0.53857196  0.95442395     1.10100
Cl1114     Cl  0.24592884  0.50114724  0.99634825    -0.87000
C1115       C  0.31384814  0.59341426  0.99397308     0.95300
C1116       C  0.17785380  0.59200173  0.98947257     0.95100
C1117       C  0.35158772  0.88054338  0.02116114    -0.21300
C1118       C  0.34063936  0.89103105  0.99406699    -0.07900
C1119       C  0.35314574  0.87996982  0.96754242     0.13000
C1120       C  0.37493714  0.85788569  0.96900583    -0.21400
C1121       C  0.38472060  0.84629875  0.99606437    -0.07900
C1122       C  0.37336137  0.85842448  0.02265193     0.12900
C1123       C  0.38345640  0.84831515  0.05282690    -0.24800
H1124       H  0.34260339  0.88929490  0.04154636     0.14200
H1125       H  0.38400692  0.84920772  0.94861467     0.14300
C1126       C  0.34398524  0.89099544  0.93748423    -0.24700
H1127       H  0.37261834  0.86102803  0.07080554     0.04500
H1128       H  0.40786079  0.85148172  0.05519189     0.07700
H1129       H  0.39514904  0.84234004  0.56918739     0.07700
H1130       H  0.34806296  0.91509045  0.93626457     0.07700
H1131       H  0.30550541  0.87204683  0.45429103     0.07700
H1132       H  0.35695571  0.88043742  0.91949959     0.04500
C1133       C  0.37229094  0.64953197  0.52580371    -0.21300
C1134       C  0.38254504  0.65987545  0.99156432    -0.10000
C1135       C  0.37480118  0.64366526  0.96589047     0.13000
C1136       C  0.35253306  0.62205294  0.96766456    -0.21400
C1137       C  0.33761613  0.61615187  0.99419460    -0.07900
C1138       C  0.35065380  0.62747119  0.52777025     0.12900
C1139       C  0.33753203  0.62111275  0.55769949    -0.24800
H1140       H  0.37870552  0.66113590  0.54577196     0.14200
H1141       H  0.34669784  0.60965661  0.94798877     0.14300
C1142       C  0.38985192  0.64851089  0.93656281    -0.24700
H1143       H  0.34781662  0.63475787  0.57536997     0.04500
H1144       H  0.34144899  0.59770460  0.56351959     0.07700
H1145       H  0.31331710  0.62599725  0.55756569     0.07700
H1146       H  0.41424837  0.64525490  0.93891105     0.07700
H1147       H  0.38505281  0.67110251  0.92834727     0.07700
H1148       H  0.38179075  0.63280757  0.91948686     0.04500
C1149       C  0.11341101  0.86146957  0.97062317    -0.21300
C1150       C  0.10830069  0.84579457  0.99682833    -0.07900
C1151       C  0.12492703  0.85311593  0.02246945     0.13000
C1152       C  0.14642873  0.87534017  0.02082498    -0.21400
C1153       C  0.15225128  0.89037093  0.99440088    -0.07900
C1154       C  0.13511884  0.88358712  0.96898682     0.12900
C1155       C  0.13897569  0.89964833  0.94018879    -0.24800
H1156       H  0.10047530  0.85619652  0.95104816     0.14200
H1157       H  0.15936041  0.88049010  0.04041695     0.14300
C1158       C  0.12914871  0.83187819  0.55765873    -0.24700
H1159       H  0.12254924  0.89240902  0.92328930     0.04500
H1160       H  0.15863343  0.89898728  0.43896726     0.07700
H1161       H  0.13567202  0.92364811  0.94384882     0.07700
H1162       H  0.13383562  0.80838516  0.55242607     0.07700
H1163       H  0.09818304  0.84050851  0.05978165     0.07700
H1164       H  0.14598842  0.83919074  0.57410395     0.04500
C1165       C  0.12541850  0.65316096  0.96471380    -0.21300
C1166       C  0.10926216  0.65785597  0.99077348    -0.07900
C1167       C  0.11400455  0.63902244  0.01528542     0.13000
C1168       C  0.13597390  0.61722536  0.01355496    -0.21400
C1169       C  0.15320835  0.61351516  0.98806594    -0.07900
C1170       C  0.14737024  0.63128152  0.96295701     0.12900
C1171       C  0.16457764  0.62830442  0.93455724    -0.24800
H1172       H  0.12150429  0.66727630  0.94580025     0.14200
H1173       H  0.13996599  0.60317928  0.03250636     0.14300
C1174       C  0.09862601  0.64103555  0.55327514    -0.24700
H1175       H  0.15728463  0.64465708  0.91774285     0.04500
H1176       H  0.16102153  0.60602232  0.92499038     0.07700
H1177       H  0.18100013  0.62551792  0.44088026     0.07700
H1178       H  0.07191640  0.63974764  0.03809827     0.07700
H1179       H  0.10414208  0.66291865  0.56280222     0.07700
H1180       H  0.10553197  0.62410066  0.56967751     0.04500
C1181       C  0.36781560  0.98103366  0.84551597    -0.21300
C1182       C  0.38146614  0.00800178  0.83872771    -0.07900
C1183       C  0.38516783  0.51755033  0.86630020     0.13000
C1184       C  0.36204741  0.51635032  0.88695385    -0.21400
C1185       C  0.33727136  0.00454199  0.88285490    -0.07900
C1186       C  0.34570198  0.97889374  0.86700180     0.12900
C1187       C  0.33140403  0.94915193  0.87172599    -0.24800
H1188       H  0.37412906  0.96130586  0.83353277     0.14200
H1189       H  0.35994711  0.53379283  0.90320381     0.14300
C1190       C  0.40699776  0.54276062  0.86779050    -0.24700
H1191       H  0.34065880  0.93198485  0.85683897     0.04500
H1192       H  0.30712918  0.95055553  0.86725289     0.07700
H1193       H  0.32293736  0.43160813  0.88411706     0.07700
H1194       H  0.38097490  0.07066471  0.82522911     0.07700
H1195       H  0.43004567  0.53404363  0.86960703     0.07700
H1196       H  0.40288163  0.55719352  0.88718161     0.04500
C1197       C  0.13525038  0.52018162  0.87934286    -0.21300
C1198       C  0.15263707  0.49473673  0.88339487    -0.07900
C1199       C  0.14157964  0.97946876  0.87212743     0.13000
C1200       C  0.11897554  0.98152131  0.85101595    -0.21400
C1201       C  0.10526295  0.00846812  0.84416541    -0.07900
C1202       C  0.11285367  0.52153147  0.85770750     0.12900
C1203       C  0.09450289  0.54934748  0.85532149    -0.24800
H1204       H  0.13936460  0.53934404  0.89311336     0.14200
H1205       H  0.11289232  0.96188605  0.83887206     0.14300
C1206       C  0.15629607  0.94980223  0.87616592    -0.24700
H1207       H  0.10007609  0.56537828  0.87305041     0.04500
H1208       H  0.07315693  0.06043869  0.85908238     0.07700
H1209       H  0.09878270  0.56047474  0.83394318     0.07700
H1210       H  0.15366967  0.94241801  0.89925452     0.07700
H1211       H  0.18800101  0.44527961  0.86524845     0.07700
H1212       H  0.14627170  0.93249973  0.86190331     0.04500
C1213       C  0.13428972  0.47346253  0.61098969    -0.21300
C1214       C  0.14739344  0.50069245  0.60380131    -0.07900
C1215       C  0.13576043  0.52678544  0.61673084     0.13000
C1216       C  0.11346617  0.52448815  0.63819784    -0.21400
C1217       C  0.10229313  0.49703030  0.64736056    -0.07900
C1218       C  0.11191775  0.47120074  0.63247825     0.12900
C1219       C  0.09316585  0.95298432  0.63783909    -0.24800
H1220       H  0.13752025  0.96352752  0.60005668     0.14200
H1221       H  0.10549729  0.54445597  0.64868765     0.14300
C1222       C  0.14686398  0.55723730  0.60893048    -0.24700
H1223       H  0.09992408  0.93625071  0.62122564     0.04500
H1224       H  0.07468482  0.44141704  0.63611550     0.07700
H1225       H  0.09882585  0.94386312  0.65987033     0.07700
H1226       H  0.14400743  0.56121780  0.58489941     0.07700
H1227       H  0.17377102  0.06652790  0.61834772     0.07700
H1228       H  0.13438431  0.57482715  0.62068319     0.04500
C1229       C  0.35959737  0.98599280  0.61189261    -0.21300
C1230       C  0.34059723  0.01059989  0.61039645    -0.07900
C1231       C  0.35755144  0.52294036  0.61896980     0.13000
C1232       C  0.37858625  0.52059440  0.64177125    -0.21400
C1233       C  0.38253553  0.49423649  0.65762755    -0.07900
C1234       C  0.38279267  0.98445816  0.63266875     0.12900
C1235       C  0.40286284  0.95776104  0.63264408    -0.24800
H1236       H  0.35606436  0.96768998  0.59695871     0.14200
H1237       H  0.39192086  0.53972989  0.64741265     0.14300
C1238       C  0.35510204  0.55181701  0.60266695    -0.24700
H1239       H  0.39773441  0.94266762  0.61399030     0.04500
H1240       H  0.39990989  0.94502460  0.65332449     0.07700
H1241       H  0.42644322  0.96479591  0.63048834     0.07700
H1242       H  0.33299949  0.56196357  0.60668516     0.07700
H1243       H  0.35839128  0.54802453  0.57867947     0.07700
H1244       H  0.37218288  0.56795599  0.61006572     0.04500
C1245       C  0.52341749  0.62024450  0.85296173    -0.21300
C1246       C  0.49658927  0.61320021  0.83857105    -0.07900
C1247       C  0.47050052  0.62924869  0.84608170     0.13000
C1248       C  0.97283872  0.64320258  0.87497840    -0.21400
C1249       C  0.00018087  0.65601481  0.88294221    -0.07900
C1250       C  0.02668185  0.64436379  0.87046914     0.12900
C1251       C  0.05718979  0.65550610  0.87887105    -0.24800
H1252       H  0.54342426  0.60800368  0.84744084     0.14200
H1253       H  0.95256131  0.65130459  0.88496531     0.14300
C1254       C  0.44081893  0.62398440  0.83131439    -0.24700
H1255       H  0.57230869  0.63359982  0.88073617     0.04500
H1256       H  0.55309045  0.64699195  0.91266047     0.07700
H1257       H  0.05941538  0.67911327  0.87271600     0.07700
H1258       H  0.43303194  0.60126327  0.83602841     0.07700
H1259       H  0.93440070  0.61328208  0.82360775     0.07700
H1260       H  0.92291786  0.61808450  0.86100456     0.04500
C1261       C  0.02304240  0.85474708  0.87247456    -0.21300
C1262       C  0.49558138  0.84916476  0.88547533    -0.07900
C1263       C  0.47264741  0.87056536  0.88381216     0.13000
C1264       C  0.47380842  0.89222370  0.86158339    -0.21400
C1265       C  0.49741960  0.89320756  0.84131964    -0.07900
C1266       C  0.02555893  0.87681564  0.85097634     0.12900
C1267       C  0.05613877  0.88371131  0.83914174    -0.24800
H1268       H  0.04307476  0.84355720  0.87977025     0.14200
H1269       H  0.45615595  0.90851972  0.86001600     0.14300
C1270       C  0.44743134  0.87125502  0.90571475    -0.24700
H1271       H  0.07368908  0.87002721  0.84977086     0.04500
H1272       H  0.06173116  0.90717486  0.84350829     0.07700
H1273       H  0.05690914  0.87912171  0.81508321     0.07700
H1274       H  0.45649992  0.87251639  0.92852029     0.07700
H1275       H  0.43347584  0.85120424  0.90338781     0.07700
H1276       H  0.43272082  0.89068364  0.90223814     0.04500
C1277       C  0.02369012  0.88228848  0.64316096    -0.21300
C1278       C  0.99800794  0.88623700  0.66031344    -0.07900
C1279       C  0.46815540  0.87059249  0.65302972     0.13000
C1280       C  0.47000803  0.84770860  0.63222325    -0.21400
C1281       C  0.49696887  0.84033369  0.61842928    -0.07900
C1282       C  0.02529063  0.86037340  0.62127029     0.12900
C1283       C  0.05343268  0.85791576  0.60337230    -0.24800
H1284       H  0.04267426  0.89664000  0.64674092     0.14200
H1285       H  0.45014525  0.83528555  0.62692398     0.14300
C1286       C  0.43834437  0.87646600  0.66710576    -0.24700
H1287       H  0.06980112  0.87533113  0.60928416     0.04500
H1288       H  0.04820678  0.86028965  0.57951255     0.07700
H1289       H  0.06427087  0.83629337  0.60754763     0.07700
H1290       H  0.43084290  0.89917899  0.66174358     0.07700
H1291       H  0.43999891  0.87354232  0.69139192     0.07700
H1292       H  0.42089287  0.86109825  0.65897564     0.04500
C1293       C  0.02165288  0.62425118  0.64712392    -0.21300
C1294       C  0.99480103  0.60937362  0.65233318    -0.07900
C1295       C  0.46531230  0.61561794  0.63767426     0.13000
C1296       C  0.46719866  0.63799911  0.61622403    -0.21400
C1297       C  0.99803205  0.65548544  0.61015258    -0.07900
C1298       C  0.02368737  0.64721496  0.62657671     0.12900
C1299       C  0.05321669  0.66281326  0.62371164    -0.24800
H1300       H  0.04123617  0.61850771  0.65994246     0.14200
H1301       H  0.44715504  0.64493486  0.60478405     0.14300
C1302       C  0.43539346  0.60182533  0.64366712    -0.24700
H1303       H  0.07035608  0.65358063  0.63885609     0.04500
H1304       H  0.05061908  0.68654893  0.62922068     0.07700
H1305       H  0.06180647  0.66028124  0.60096490     0.07700
H1306       H  0.42829376  0.60681622  0.66657002     0.07700
H1307       H  0.43667844  0.57757196  0.64037566     0.07700
H1308       H  0.41788694  0.61049689  0.62860610     0.04500
N1309       N  0.55897259  0.49258998  0.21245065    -0.07200
N1310       N  0.57470935  0.48174256  0.19052327    -0.59300
N1311       N  0.55924842  0.01325058  0.27907814    -0.06800
N1312       N  0.57626702  0.02366073  0.30041660    -0.61400
N1313       N  0.55972257  0.49426332  0.28008427    -0.06400
N1314       N  0.57659013  0.48467289  0.30184715    -0.59300
N1315       N  0.55608874  0.01294258  0.21136724    -0.06100
N1316       N  0.57266551  0.02298593  0.18955861    -0.61800
C1317       C  0.58284313  0.99826902  0.17606052     0.95000
C1318       C  0.58659012  0.50962574  0.31490084     0.94800
N1319       N  0.98117042  0.06068984  0.28229140    -0.07300
N1320       N  0.97123752  0.07822771  0.30328727    -0.59900
N1321       N  0.50638183  0.06207648  0.21393184    -0.05500
N1322       N  0.51540379  0.07987635  0.19278017    -0.61100
N1323       N  0.97807481  0.05992332  0.21445636    -0.07400
N1324       N  0.96674076  0.07624889  0.19300520    -0.60100
N1325       N  0.51002693  0.06220431  0.28165536    -0.05100
N1326       N  0.52106408  0.07894114  0.30291212    -0.61200
Mn1327     Mn  0.53365223  0.03827173  0.24640679     1.18400
C1328       C  0.99609717  0.09007310  0.31531852     0.97100
C1329       C  0.48979908  0.09074498  0.18129544     0.97800
N1330       N  0.51244678  0.44359956  0.28152615    -0.07400
N1331       N  0.52358556  0.42653973  0.30243315    -0.63700
N1332       N  0.98330104  0.43971032  0.21503325    -0.06200
N1333       N  0.97280864  0.42181562  0.19461491    -0.64400
N1334       N  0.51139502  0.44256378  0.21378435    -0.06900
N1335       N  0.52181026  0.42543039  0.19266013    -0.64000
N1336       N  0.98269622  0.44230959  0.28283165    -0.05800
N1337       N  0.97225589  0.42714236  0.30539605    -0.64700
Mn1338     Mn  0.53636218  0.46773665  0.24701263     1.10700
C1339       C  0.99698794  0.41778358  0.31982757     0.98300
C1340       C  0.49702639  0.41432005  0.17969867     0.98400
N1341       N  0.92984039  0.00980061  0.21745307    -0.06900
N1342       N  0.91141692  0.01958797  0.19700593    -0.62300
N1343       N  0.93293341  0.49087496  0.27977870    -0.06200
N1344       N  0.91535458  0.48141250  0.30100703    -0.59000
N1345       N  0.93295644  0.01003950  0.28473344    -0.07500
N1346       N  0.91557346  0.01969076  0.30606278    -0.61900
N1347       N  0.93472249  0.48880851  0.21225502    -0.06500
N1348       N  0.91913141  0.47768322  0.19026040    -0.59000
Mn1349     Mn  0.95484988  0.03578183  0.24980622     1.20200
Mn1350     Mn  0.95773180  0.46476317  0.24755669     1.10100
Cl1351     Cl  0.49402210  0.99821001  0.24846703    -0.87000
C1352       C  0.90063269  0.99469165  0.18446197     0.95300
C1353       C  0.90443182  0.50656097  0.31294068     0.95100
N1354       N  0.98189420  0.21499979  0.06399156    -0.07200
N1355       N  0.97131121  0.19278193  0.07956734    -0.59300
N1356       N  0.51327056  0.28359626  0.06726887    -0.06800
N1357       N  0.52439489  0.30448303  0.08431222    -0.61400
N1358       N  0.98259159  0.28306708  0.06572337    -0.06400
N1359       N  0.97296369  0.30464583  0.08282635    -0.59300
N1360       N  0.51066947  0.21597504  0.06535250    -0.06100
N1361       N  0.51993171  0.19383737  0.08190772    -0.61800
C1362       C  0.49446145  0.18149143  0.09190468     0.95000
C1363       C  0.99827592  0.31749094  0.09309166     0.94800
N1364       N  0.56321704  0.28644915  0.48019307    -0.07300
N1365       N  0.57962792  0.30824032  0.46999256    -0.59900
N1366       N  0.56027595  0.21565773  0.01646686    -0.05500
N1367       N  0.57621207  0.19323307  0.02617262    -0.61100
N1368       N  0.56373845  0.21862638  0.48043975    -0.07400
N1369       N  0.58025667  0.19648212  0.47088376    -0.60100
N1370       N  0.56198008  0.28356368  0.01855321    -0.05100
N1371       N  0.57731747  0.30575420  0.02966438    -0.61200
Mn1372     Mn  0.53732923  0.24952530  0.04255663     1.18400
C1373       C  0.58953377  0.32196820  0.49463558     0.97100
C1374       C  0.58997435  0.18331431  0.49602048     0.97800
N1375       N  0.93326948  0.28383576  0.01603788    -0.07400
N1376       N  0.91663344  0.30540023  0.02649139    -0.63700
N1377       N  0.93232162  0.21681980  0.47717463    -0.06200
N1378       N  0.91723007  0.19448590  0.46596848    -0.64400
N1379       N  0.93361816  0.21588259  0.01459310    -0.06900
N1380       N  0.91818766  0.19305893  0.02411304    -0.64000
N1381       N  0.93012754  0.28480177  0.47919925    -0.05800
N1382       N  0.91419628  0.30725081  0.46939903    -0.64700
Mn1383     Mn  0.95702932  0.24956349  0.04080579     1.10700
C1384       C  0.90416185  0.32040501  0.49431393     0.98300
C1385       C  0.90715977  0.17978511  0.48991062     0.98400
N1386       N  0.51483286  0.21863534  0.43102239    -0.06900
N1387       N  0.52560784  0.19692230  0.41489420    -0.62300
N1388       N  0.98014268  0.28759479  0.43159243    -0.06200
N1389       N  0.96919719  0.31016507  0.41674739    -0.59000
N1390       N  0.51403143  0.28655286  0.43089515    -0.07500
N1391       N  0.52374305  0.30844917  0.41421003    -0.61900
N1392       N  0.98241204  0.21958485  0.42911532    -0.06500
N1393       N  0.97322823  0.19774291  0.41210914    -0.59000
Mn1394     Mn  0.53972515  0.25258306  0.45490108     1.20200
Mn1395     Mn  0.95546622  0.25213966  0.45348148     1.10100
Cl1396     Cl  0.99446510  0.25216083  0.49408649    -0.87000
C1397       C  0.50116233  0.18287688  0.40461942     0.95300
C1398       C  0.99348777  0.32539795  0.40803169     0.95100
N1399       N  0.78129121  0.44155776  0.48026467    -0.07200
N1400       N  0.80267466  0.42489720  0.46953594    -0.59300
N1401       N  0.71210206  0.43866470  0.01478893    -0.06800
N1402       N  0.68969620  0.42341271  0.02573182    -0.61400
N1403       N  0.71328615  0.44167099  0.47931894    -0.06400
N1404       N  0.69209757  0.42499540  0.46814600    -0.59300
N1405       N  0.78075810  0.43795036  0.01372777    -0.06100
N1406       N  0.80275643  0.42126468  0.02370260    -0.61800
C1407       C  0.81587030  0.41333061  0.49371037     0.95000
C1408       C  0.67842393  0.41375571  0.49211785     0.94800
N1409       N  0.71154407  0.01469563  0.06022301    -0.07300
N1410       N  0.68994747  0.02529927  0.07676059    -0.59900
N1411       N  0.78137791  0.48904454  0.06040088    -0.05500
N1412       N  0.80417353  0.47917988  0.07584893    -0.61100
N1413       N  0.77959379  0.01394712  0.06184049    -0.07400
N1414       N  0.80028413  0.02396321  0.07990263    -0.60100
N1415       N  0.71266186  0.48946818  0.06147137    -0.05100
N1416       N  0.69011079  0.48024151  0.07764330    -0.61200
Mn1417     Mn  0.74677433  0.46305213  0.03849901     1.18400
C1418       C  0.67614747  0.00103572  0.08740122     0.97100
C1419       C  0.81854864  0.50393517  0.08451776     0.97800
N1420       N  0.71386767  0.49097704  0.43141292    -0.07400
N1421       N  0.69249225  0.48086172  0.41427577    -0.63700
N1422       N  0.77834714  0.00974561  0.43246935    -0.06200
N1423       N  0.79974691  0.01834388  0.41462410    -0.64400
N1424       N  0.78170277  0.49079836  0.43259656    -0.06900
N1425       N  0.80299709  0.48045700  0.41562949    -0.64000
N1426       N  0.71037466  0.01157302  0.43409730    -0.05800
N1427       N  0.68949059  0.02122868  0.41596401    -0.64700
Mn1428     Mn  0.74751678  0.46565397  0.45532580     1.10700
C1429       C  0.67566593  0.99630388  0.40678041     0.98300
C1430       C  0.81660220  0.50494851  0.40546797     0.98400
N1431       N  0.78144664  0.06281431  0.01304694    -0.06900
N1432       N  0.80330887  0.07875578  0.02410995    -0.62300
N1433       N  0.71291355  0.06266326  0.48044554    -0.06200
N1434       N  0.69102679  0.07905770  0.46996649    -0.59000
N1435       N  0.71302317  0.06339486  0.01107403    -0.07500
N1436       N  0.69051173  0.07922597  0.02079293    -0.61900
N1437       N  0.78143713  0.06133034  0.47914285    -0.06500
N1438       N  0.80366391  0.07711157  0.46837205    -0.59000
Mn1439     Mn  0.74638997  0.03944274  0.03717168     1.20200
Mn1440     Mn  0.74585380  0.03707218  0.45579828     1.10100
Cl1441     Cl  0.74610445  0.99936509  0.49755296    -0.87000
C1442       C  0.81767436  0.08776206  0.49275290     0.95300
C1443       C  0.67806957  0.09026255  0.49442327     0.95100
C1444       C  0.85896683  0.38798010  0.51700776    -0.21300
C1445       C  0.83964949  0.39068413  0.49272903    -0.07900
C1446       C  0.84261971  0.37087777  0.46866629     0.13000
C1447       C  0.86441101  0.34883604  0.46984813    -0.21400
C1448       C  0.88313901  0.34556082  0.49440584    -0.07900
C1449       C  0.88075004  0.36572743  0.51819659     0.12900
C1450       C  0.90129876  0.36444252  0.54457604    -0.24800
H1451       H  0.85690552  0.40333420  0.53528331     0.14200
H1452       H  0.86623326  0.33338632  0.45163364     0.14300
C1453       C  0.82226370  0.37169394  0.44210226    -0.24700
H1454       H  0.89747851  0.38318778  0.55992002     0.04500
H1455       H  0.92482977  0.36545039  0.53718909     0.07700
H1456       H  0.88477444  0.33126752  0.06488221     0.07700
H1457       H  0.82541962  0.39263640  0.42980156     0.07700
H1458       H  0.81198433  0.37385155  0.94307419     0.07700
H1459       H  0.82692629  0.35338012  0.42647648     0.04500
C1460       C  0.87482210  0.14613564  0.02565410    -0.21300
C1461       C  0.88684324  0.15387412  0.48919747    -0.10000
C1462       C  0.87441779  0.14202111  0.46289710     0.13000
C1463       C  0.85273331  0.11976186  0.46489001    -0.21400
C1464       C  0.84301351  0.10892127  0.49227150    -0.07900
C1465       C  0.85230282  0.12487611  0.02717525     0.12900
C1466       C  0.83791238  0.11955315  0.05671624    -0.24800
H1467       H  0.88115509  0.15771728  0.04571068     0.14200
H1468       H  0.84269146  0.11133957  0.44477089     0.14300
C1469       C  0.88324507  0.15272646  0.43263524    -0.24700
H1470       H  0.84806743  0.13314478  0.07450676     0.04500
H1471       H  0.84072903  0.09615438  0.06307824     0.07700
H1472       H  0.81391225  0.12530513  0.05562488     0.07700
H1473       H  0.90756540  0.14973559  0.42945651     0.07700
H1474       H  0.87714661  0.17632191  0.42997939     0.07700
H1475       H  0.87174718  0.14026645  0.41482188     0.04500
C1476       C  0.62743154  0.35114987  0.46832300    -0.21300
C1477       C  0.61078008  0.34687239  0.49412469    -0.07900
C1478       C  0.61514774  0.36608112  0.51838281     0.13000
C1479       C  0.63683089  0.38816885  0.51652563    -0.21400
C1480       C  0.65424049  0.39171946  0.49114026    -0.07900
C1481       C  0.64910122  0.37322932  0.46640969     0.12900
C1482       C  0.66673769  0.37567165  0.43821289    -0.24800
H1483       H  0.62401060  0.33660316  0.44961764     0.14200
H1484       H  0.64041799  0.40263659  0.53527334     0.14300
C1485       C  0.61524273  0.34419905  0.06237434    -0.24700
H1486       H  0.66006392  0.35871015  0.42177265     0.04500
H1487       H  0.65801268  0.39533407  0.93866876     0.07700
H1488       H  0.66290095  0.39757104  0.42790651     0.07700
H1489       H  0.62117380  0.32042550  0.06290018     0.07700
H1490       H  0.57295542  0.36521116  0.54076187     0.07700
H1491       H  0.62836073  0.35534458  0.07995816     0.04500
C1492       C  0.61393479  0.14063821  0.47143477    -0.21300
C1493       C  0.61103531  0.15815447  0.49684446    -0.07900
C1494       C  0.62909284  0.15193580  0.52182520     0.13000
C1495       C  0.65009435  0.12921296  0.52019307    -0.21400
C1496       C  0.65382375  0.11242093  0.49446407    -0.07900
C1497       C  0.63497842  0.11776192  0.46988877     0.12900
C1498       C  0.63640199  0.09943711  0.44212507    -0.24800
H1499       H  0.59977274  0.14500726  0.45252259     0.14200
H1500       H  0.66429071  0.12506227  0.53912512     0.14300
C1501       C  0.61639901  0.15650930  0.05687798    -0.24700
H1502       H  0.61863262  0.10560954  0.42615704     0.04500
H1503       H  0.63347204  0.07572422  0.44761989     0.07700
H1504       H  0.66547871  0.11268530  0.93355057     0.07700
H1505       H  0.60513249  0.16692317  0.56020147     0.07700
H1506       H  0.62197778  0.18035899  0.05775440     0.07700
H1507       H  0.62988300  0.14529656  0.07415512     0.04500
C1508       C  0.87852410  0.48123726  0.35361000    -0.21300
C1509       C  0.88261133  0.50719578  0.33722345    -0.07900
C1510       C  0.88060645  0.01569995  0.36432502     0.13000
C1511       C  0.85748999  0.01412931  0.38484758    -0.21400
C1512       C  0.84019811  0.50489430  0.38290730    -0.07900
C1513       C  0.85750344  0.47960131  0.37626915     0.12900
C1514       C  0.85441814  0.45086190  0.39285901    -0.24800
H1515       H  0.89181229  0.46187381  0.34855414     0.14200
H1516       H  0.85563517  0.03107508  0.40164524     0.14300
C1517       C  0.90247155  0.04075127  0.36652276    -0.24700
H1518       H  0.87111738  0.43427210  0.38566419     0.04500
H1519       H  0.83211283  0.44114453  0.38877473     0.07700
H1520       H  0.81712455  0.93027905  0.37950793     0.07700
H1521       H  0.86275190  0.55683299  0.30307822     0.07700
H1522       H  0.92552351  0.03196919  0.36796406     0.07700
H1523       H  0.89848567  0.05465200  0.38632362     0.04500
C1524       C  0.63615224  0.02219097  0.37872257    -0.21300
C1525       C  0.65193816  0.99591882  0.38397332    -0.07900
C1526       C  0.64530468  0.48006026  0.36653177     0.13000
C1527       C  0.62257077  0.48236717  0.34554842    -0.21400
C1528       C  0.60891283  0.50947604  0.33899604    -0.07900
C1529       C  0.61459555  0.02419880  0.35631777     0.12900
C1530       C  0.59838107  0.05312042  0.35231898    -0.24800
H1531       H  0.64079666  0.04138783  0.39216150     0.14200
H1532       H  0.61596113  0.46273867  0.33364967     0.14300
C1533       C  0.65951698  0.45017600  0.37101557    -0.24700
H1534       H  0.60501962  0.06963581  0.36922113     0.04500
H1535       H  0.57902239  0.56333940  0.35320672     0.07700
H1536       H  0.60363967  0.06270992  0.33040454     0.07700
H1537       H  0.65609470  0.44268373  0.39407506     0.07700
H1538       H  0.68631901  0.94540266  0.36705715     0.07700
H1539       H  0.64969246  0.43308711  0.35635871     0.04500
C1540       C  0.63547033  0.97504984  0.11391588    -0.21300
C1541       C  0.65101596  0.00146168  0.10881254    -0.07900
C1542       C  0.64274924  0.02705998  0.12491974     0.13000
C1543       C  0.62002378  0.02513491  0.14599640    -0.21400
C1544       C  0.60515909  0.99852353  0.15180654    -0.07900
C1545       C  0.61267342  0.97316539  0.13501742     0.12900
C1546       C  0.60805539  0.44799556  0.15001371    -0.24800
H1547       H  0.64986605  0.45887354  0.11015907     0.14200
H1548       H  0.61428425  0.04470507  0.15860019     0.14300
C1549       C  0.65797997  0.05645935  0.12088502    -0.24700
H1550       H  0.61941477  0.42989401  0.13791027     0.04500
H1551       H  0.57248161  0.94715306  0.13545040     0.07700
H1552       H  0.61377603  0.44535089  0.17371268     0.07700
H1553       H  0.65466531  0.06444893  0.09794176     0.07700
H1554       H  0.66707021  0.56836199  0.10822232     0.07700
H1555       H  0.64884838  0.07362722  0.13585662     0.04500
C1556       C  0.84856540  0.47749160  0.12170117    -0.21300
C1557       C  0.84405331  0.50348932  0.10542071    -0.07900
C1558       C  0.85334751  0.02367620  0.12198266     0.13000
C1559       C  0.87422844  0.02131997  0.14483110    -0.21400
C1560       C  0.87847515  0.99479048  0.16027896    -0.07900
C1561       C  0.87005774  0.47569913  0.14404372     0.12900
C1562       C  0.87212261  0.44734990  0.16142254    -0.24800
H1563       H  0.83439992  0.45861402  0.11774111     0.14200
H1564       H  0.88747503  0.04046920  0.15055991     0.14300
C1565       C  0.85069130  0.05275119  0.10606417    -0.24700
H1566       H  0.85574371  0.43065057  0.15375751     0.04500
H1567       H  0.86753561  0.45168889  0.18509919     0.07700
H1568       H  0.89457225  0.43753407  0.15876740     0.07700
H1569       H  0.82824356  0.06235337  0.10957724     0.07700
H1570       H  0.85481489  0.04932299  0.08216259     0.07700
H1571       H  0.86715307  0.06918292  0.11415834     0.04500
C1572       C  0.02385803  0.12441960  0.34852392    -0.21300
C1573       C  0.99629158  0.11324369  0.33886209    -0.07900
C1574       C  0.96988806  0.12499525  0.35144274     0.13000
C1575       C  0.47453655  0.14245683  0.37891182    -0.21400
C1576       C  0.50153860  0.15711954  0.38418649    -0.07900
C1577       C  0.52749581  0.14723615  0.36932600     0.12900
C1578       C  0.55776985  0.16066461  0.37462119    -0.24800
H1579       H  0.04417702  0.11537338  0.33941984     0.14200
H1580       H  0.45480348  0.14923966  0.39081074     0.14300
C1581       C  0.93931557  0.11382491  0.34351277    -0.24700
H1582       H  0.07428636  0.14524983  0.36746559     0.04500
H1583       H  0.05932901  0.15492272  0.40274927     0.07700
H1584       H  0.55741811  0.18445612  0.36876717     0.07700
H1585       H  0.93806811  0.08995009  0.34854313     0.07700
H1586       H  0.43342033  0.10851150  0.33248801     0.07700
H1587       H  0.42592674  0.11268970  0.37095439     0.04500
C1588       C  0.52521294  0.35927995  0.37429799    -0.21300
C1589       C  0.99285974  0.35191474  0.38857704    -0.07900
C1590       C  0.96659671  0.36228233  0.37445942     0.13000
C1591       C  0.96878721  0.38457050  0.35306490    -0.21400
C1592       C  0.99625528  0.39729805  0.34553989    -0.07900
C1593       C  0.52673816  0.38189699  0.35307820     0.12900
C1594       C  0.55701089  0.39381631  0.34506977    -0.24800
H1595       H  0.54568144  0.35102218  0.38394252     0.14200
H1596       H  0.94883438  0.39142420  0.34147093     0.14300
C1597       C  0.93612093  0.34997166  0.38107176    -0.24700
H1598       H  0.57504521  0.38339587  0.35829183     0.04500
H1599       H  0.55784947  0.41793783  0.34933878     0.07700
H1600       H  0.56180985  0.38922656  0.32149322     0.07700
H1601       H  0.93108723  0.35267318  0.40491081     0.07700
H1602       H  0.93507183  0.32632355  0.37478726     0.07700
H1603       H  0.91832978  0.36158431  0.36853814     0.04500
C1604       C  0.52383359  0.37463291  0.15327534    -0.21300
C1605       C  0.49765102  0.39127210  0.15642367    -0.07900
C1606       C  0.97058776  0.37168238  0.15032666     0.13000
C1607       C  0.97208141  0.34951854  0.12880057    -0.21400
C1608       C  0.99886027  0.34215494  0.11480821    -0.07900
C1609       C  0.52569309  0.35102742  0.13335096     0.12900
C1610       C  0.55401627  0.33313965  0.13277844    -0.24800
H1611       H  0.54287574  0.37951739  0.16725801     0.14200
H1612       H  0.95200139  0.33750121  0.12316370     0.14300
C1613       C  0.94078232  0.37749007  0.16443487    -0.24700
H1614       H  0.57059698  0.34120783  0.14914270     0.04500
H1615       H  0.56446702  0.33467142  0.11072767     0.07700
H1616       H  0.54909862  0.30973770  0.13814426     0.07700
H1617       H  0.93369602  0.40048168  0.15980355     0.07700
H1618       H  0.94220392  0.37363820  0.18860150     0.07700
H1619       H  0.92311127  0.36272876  0.15565888     0.04500
C1620       C  0.51368881  0.11426809  0.13853192    -0.21300
C1621       C  0.48904253  0.11293466  0.15738884    -0.07900
C1622       C  0.96460503  0.12264469  0.14340356     0.13000
C1623       C  0.96721809  0.14477564  0.12183040    -0.21400
C1624       C  0.49303244  0.15704704  0.11351286    -0.07900
C1625       C  0.51609494  0.13599836  0.11673486     0.12900
C1626       C  0.54323672  0.13593451  0.09730695    -0.24800
H1627       H  0.53152284  0.09825947  0.14106422     0.14200
H1628       H  0.94730642  0.15641634  0.11477953     0.14300
C1629       C  0.93409151  0.11585451  0.15541947    -0.24700
H1630       H  0.55786337  0.11663264  0.10174351     0.04500
H1631       H  0.55660840  0.15606059  0.10157376     0.07700
H1632       H  0.53644168  0.13500953  0.07373445     0.07700
H1633       H  0.93334867  0.12082686  0.17939490     0.07700
H1634       H  0.92861144  0.09228158  0.15149683     0.07700
H1635       H  0.91649966  0.12930964  0.14455762     0.04500
N1636       N  0.55953016  0.48372639  0.71161285    -0.07200
N1637       N  0.57575417  0.47365516  0.68958524    -0.59300
N1638       N  0.56048007  0.01969643  0.78235834    -0.06800
N1639       N  0.57693023  0.02954441  0.80438295    -0.61400
N1640       N  0.56227531  0.48428621  0.77925256    -0.06400
N1641       N  0.57898746  0.47451178  0.80108571    -0.59300
N1642       N  0.56069246  0.01974963  0.71450489    -0.06100
N1643       N  0.57747445  0.02961118  0.69275889    -0.61800
C1644       C  0.58698056  0.00479020  0.67896536     0.95000
C1645       C  0.58858090  0.49941635  0.81453894     0.94800
N1646       N  0.97962310  0.06781563  0.78228943    -0.07300
N1647       N  0.96877696  0.08312562  0.80453479    -0.59900
N1648       N  0.51227097  0.06992076  0.71497273    -0.05500
N1649       N  0.52242792  0.08690157  0.69357041    -0.61100
N1650       N  0.97892716  0.06838311  0.71442964    -0.07400
N1651       N  0.96779808  0.08526587  0.69336150    -0.60100
N1652       N  0.51170830  0.06932670  0.78324225    -0.05100
N1653       N  0.52132029  0.08558372  0.80561883    -0.61200
Mn1654     Mn  0.53715657  0.04541691  0.74877575     1.18400
C1655       C  0.99321804  0.09394527  0.81825496     0.97100
C1656       C  0.49742190  0.09724999  0.68027524     0.97800
N1657       N  0.51465607  0.43419957  0.78193206    -0.07400
N1658       N  0.52639646  0.41857201  0.80363159    -0.63700
N1659       N  0.97859602  0.43410678  0.71386756    -0.06200
N1660       N  0.96692246  0.41831716  0.69232255    -0.64400
N1661       N  0.51121761  0.43409906  0.71406695    -0.06900
N1662       N  0.52080775  0.41859569  0.69143191    -0.64000
N1663       N  0.98174910  0.43444147  0.78164211    -0.05800
N1664       N  0.97240762  0.41804319  0.80383009    -0.64700
Mn1665     Mn  0.53767339  0.45834830  0.74666177     1.10700
C1666       C  0.99779571  0.40749092  0.81620137     0.98300
C1667       C  0.49560599  0.40816096  0.67874653     0.98400
N1668       N  0.93239775  0.01699332  0.71454152    -0.06900
N1669       N  0.91610253  0.02651315  0.69229401    -0.62300
N1670       N  0.93275456  0.48434359  0.78238214    -0.06200
N1671       N  0.91525438  0.47494836  0.80368583    -0.59000
N1672       N  0.93276487  0.01751378  0.78218650    -0.07500
N1673       N  0.91674128  0.02742089  0.80436058    -0.61900
N1674       N  0.93023724  0.48310301  0.71508844    -0.06500
N1675       N  0.91291055  0.47252797  0.69409619    -0.59000
Mn1676     Mn  0.95512507  0.04331676  0.74828069     1.20200
Mn1677     Mn  0.95516860  0.45828898  0.74845053     1.10100
Cl1678     Cl  0.49673625  0.00588303  0.74829000    -0.87000
C1679       C  0.90710458  0.00149834  0.67861665     0.95300
C1680       C  0.90479438  0.50012442  0.81595531     0.95100
N1681       N  0.97923617  0.21666704  0.55719774    -0.07200
N1682       N  0.96929665  0.19607489  0.57528154    -0.59300
N1683       N  0.51401465  0.28605270  0.55812950    -0.06800
N1684       N  0.52427476  0.30729511  0.57516602    -0.61400
N1685       N  0.97774452  0.28443924  0.55819124    -0.06400
N1686       N  0.96718351  0.30594796  0.57485292    -0.59300
N1687       N  0.51469062  0.21855383  0.55828805    -0.06100
N1688       N  0.52531057  0.19776409  0.57577071    -0.61800
C1689       C  0.50072642  0.18425515  0.58635906     0.95000
C1690       C  0.99197093  0.31971077  0.58512974     0.94800
N1691       N  0.56207274  0.28462200  0.98956903    -0.07300
N1692       N  0.57754044  0.30759385  0.98040714    -0.59900
N1693       N  0.56334550  0.21894544  0.50943572    -0.05500
N1694       N  0.57942603  0.19715805  0.52019004    -0.61100
N1695       N  0.56074117  0.21655055  0.98749380    -0.07400
N1696       N  0.57700395  0.19470321  0.97693378    -0.60100
N1697       N  0.56314125  0.28657460  0.50919147    -0.05100
N1698       N  0.57954428  0.30848640  0.51933125    -0.61200
Mn1699     Mn  0.53950274  0.25259471  0.53435807     1.18400
C1700       C  0.58696003  0.32065117  0.00568126     0.97100
C1701       C  0.58656802  0.18024403  0.00136306     0.97800
N1702       N  0.92969302  0.28407023  0.50819221    -0.07400
N1703       N  0.91355979  0.30597790  0.51872376    -0.63700
N1704       N  0.93387012  0.21635386  0.98560280    -0.06200
N1705       N  0.91858670  0.19393304  0.97484084    -0.64400
N1706       N  0.93159597  0.21608538  0.50617405    -0.06900
N1707       N  0.91600185  0.19317737  0.51521800    -0.64000
N1708       N  0.93328111  0.28427969  0.98703096    -0.05800
N1709       N  0.91668274  0.30620913  0.97720285    -0.64700
Mn1710     Mn  0.95370066  0.25021149  0.53307440     1.10700
C1711       C  0.90649992  0.31935951  0.00206124     0.98300
C1712       C  0.90897088  0.17942716  0.99908020     0.98400
N1713       N  0.51185760  0.21877050  0.93848091    -0.06900
N1714       N  0.52190362  0.19680733  0.92215310    -0.62300
N1715       N  0.98235700  0.28518673  0.93790133    -0.06200
N1716       N  0.97168700  0.30615547  0.92070142    -0.59000
N1717       N  0.51342417  0.28676547  0.93980199    -0.07500
N1718       N  0.52434337  0.30830329  0.92350067    -0.61900
N1719       N  0.98281529  0.21749826  0.93701342    -0.06500
N1720       N  0.97245864  0.19577253  0.92061618    -0.59000
Mn1721     Mn  0.53780136  0.25172215  0.96311599     1.20200
Mn1722     Mn  0.95733430  0.25089801  0.96122660     1.10100
Cl1723     Cl  0.99704469  0.25042360  0.00109550    -0.87000
C1724       C  0.49696803  0.18367997  0.91174219     0.95300
C1725       C  0.99615751  0.31963441  0.90986200     0.95100
N1726       N  0.78007317  0.43727968  0.98475141    -0.07200
N1727       N  0.80142127  0.42028036  0.97445499    -0.59300
N1728       N  0.71276533  0.44085200  0.50829056    -0.06800
N1729       N  0.69112124  0.42351018  0.51746117    -0.61400
N1730       N  0.71173556  0.43766438  0.98582177    -0.06400
N1731       N  0.68908183  0.42169746  0.97646129    -0.59300
N1732       N  0.78123222  0.44053453  0.50923858    -0.06100
N1733       N  0.80271520  0.42298572  0.51883253    -0.61800
C1734       C  0.81553054  0.41034083  0.99886366     0.95000
C1735       C  0.67532986  0.41306139  0.00153488     0.94800
N1736       N  0.71409323  0.01750844  0.56101435    -0.07300
N1737       N  0.69268776  0.02899716  0.57723795    -0.59900
N1738       N  0.78055435  0.48875240  0.55869861    -0.05500
N1739       N  0.80227328  0.47800554  0.57507144    -0.61100
N1740       N  0.78239816  0.01647462  0.55910449    -0.07400
N1741       N  0.80445059  0.02741124  0.57488545    -0.60100
N1742       N  0.71215724  0.48894419  0.55839246    -0.05100
N1743       N  0.69017181  0.47875288  0.57475037    -0.61200
Mn1744     Mn  0.74662084  0.46402084  0.53444801     1.18400
C1745       C  0.67907340  0.00528078  0.58928153     0.97100
C1746       C  0.81612663  0.50226040  0.58571550     0.97800
N1747       N  0.71164765  0.48445895  0.93530738    -0.07400
N1748       N  0.69001104  0.47345705  0.91907390    -0.63700
N1749       N  0.78256733  0.01431982  0.93501468    -0.06200
N1750       N  0.80478125  0.02389345  0.91865451    -0.64400
N1751       N  0.77951366  0.48422768  0.93414259    -0.06900
N1752       N  0.80036673  0.47343127  0.91679476    -0.64000
N1753       N  0.71426443  0.01531856  0.93338272    -0.05800
N1754       N  0.69255311  0.02540374  0.91645319    -0.64700
Mn1755     Mn  0.74574792  0.46017874  0.95941177     1.10700
C1756       C  0.67901267  0.00058300  0.90652298     0.98300
C1757       C  0.81346765  0.49771792  0.90530978     0.98400
N1758       N  0.78168176  0.06240799  0.50811386    -0.06900
N1759       N  0.80393156  0.07873091  0.51760037    -0.62300
N1760       N  0.71376599  0.06387609  0.98210024    -0.06200
N1761       N  0.69174324  0.08007181  0.97151839    -0.59000
N1762       N  0.71351748  0.06378516  0.50941440    -0.07500
N1763       N  0.69210408  0.08101462  0.51924840    -0.61900
N1764       N  0.78229624  0.06319610  0.98406671    -0.06500
N1765       N  0.80481030  0.07946857  0.97486042    -0.59000
Mn1766     Mn  0.74786800  0.04075015  0.53501579     1.20200
Mn1767     Mn  0.74831679  0.04002013  0.95785617     1.10100
Cl1768     Cl  0.74698119  0.00009867  0.99760874    -0.87000
C1769       C  0.81780731  0.08908247  0.00013755     0.95300
C1770       C  0.67727583  0.08946840  0.99592546     0.95100
C1771       C  0.85438649  0.38179588  0.02561140    -0.21300
C1772       C  0.84031876  0.38849981  0.99868674    -0.07900
C1773       C  0.84959837  0.37344983  0.97278818     0.13000
C1774       C  0.87179553  0.35183366  0.97484837    -0.21400
C1775       C  0.88490117  0.34420872  0.00194201    -0.07900
C1776       C  0.87643147  0.35987666  0.02768594     0.12900
C1777       C  0.89028194  0.35396315  0.05748491    -0.24800
H1778       H  0.84777277  0.39347300  0.04539596     0.14200
H1779       H  0.87837150  0.34019972  0.95501624     0.14300
C1780       C  0.83609836  0.37914864  0.94281359    -0.24700
H1781       H  0.88188453  0.36938324  0.07461086     0.04500
H1782       H  0.91480523  0.35678491  0.05625435     0.07700
H1783       H  0.89748878  0.34381166  0.55719303     0.07700
H1784       H  0.83949853  0.40251863  0.93670365     0.07700
H1785       H  0.79873255  0.36949909  0.44922751     0.07700
H1786       H  0.84650055  0.36548494  0.92528107     0.04500
C1787       C  0.87859350  0.14156498  0.51636933    -0.21300
C1788       C  0.88820535  0.15391533  0.99883334    -0.10000
C1789       C  0.88023665  0.13818662  0.97290649     0.13000
C1790       C  0.85803095  0.11644787  0.97450236    -0.21400
C1791       C  0.84325285  0.11006879  0.00104278    -0.07900
C1792       C  0.85697415  0.11944653  0.51840720     0.12900
C1793       C  0.84944255  0.10800524  0.54876679    -0.24800
H1794       H  0.88861027  0.14987923  0.53654237     0.14200
H1795       H  0.85165272  0.10478554  0.95449815     0.14300
C1796       C  0.89466614  0.14398826  0.94343750    -0.24700
H1797       H  0.86382472  0.11782616  0.56617764     0.04500
H1798       H  0.85280590  0.08374201  0.54949458     0.07700
H1799       H  0.82611557  0.11370709  0.55442589     0.07700
H1800       H  0.91917536  0.14134850  0.94534193     0.07700
H1801       H  0.88913897  0.16657830  0.93570362     0.07700
H1802       H  0.88673221  0.12838077  0.92620318     0.04500
C1803       C  0.61157411  0.36200722  0.97974224    -0.21300
C1804       C  0.60661079  0.34702172  0.00640577    -0.07900
C1805       C  0.62142151  0.35692579  0.03227182     0.13000
C1806       C  0.64291108  0.37924325  0.02996488    -0.21400
C1807       C  0.64971171  0.39241863  0.00274807    -0.07900
C1808       C  0.63259060  0.38474722  0.97757910     0.12900
C1809       C  0.63591942  0.40028475  0.94834233    -0.24800
H1810       H  0.59932671  0.35551199  0.96015018     0.14200
H1811       H  0.65510525  0.38581110  0.04956918     0.14300
C1812       C  0.59704747  0.36387294  0.54619955    -0.24700
H1813       H  0.61886771  0.39301383  0.93208933     0.04500
H1814       H  0.69080540  0.37250010  0.44290448     0.07700
H1815       H  0.63322263  0.42446807  0.95140979     0.07700
H1816       H  0.60208063  0.34277717  0.55760593     0.07700
H1817       H  0.59135172  0.34725565  0.06769914     0.07700
H1818       H  0.60221304  0.38200102  0.56191521     0.04500
C1819       C  0.61459428  0.14211905  0.97335050    -0.21300
C1820       C  0.60781183  0.15506087  0.00076371    -0.07900
C1821       C  0.62245051  0.14449292  0.02644946     0.13000
C1822       C  0.64404013  0.12242885  0.02379620    -0.21400
C1823       C  0.65202317  0.11062451  0.99630696    -0.07900
C1824       C  0.63647410  0.12007056  0.97071012     0.12900
C1825       C  0.64247797  0.10726554  0.94057323    -0.24800
H1826       H  0.60309167  0.14964001  0.95371159     0.14200
H1827       H  0.65541797  0.11499852  0.04352439     0.14300
C1828       C  0.62744030  0.16948648  0.55010027    -0.24700
H1829       H  0.62708808  0.11630458  0.92357939     0.04500
H1830       H  0.63938459  0.08295446  0.94109892     0.07700
H1831       H  0.65805702  0.10282816  0.43092315     0.07700
H1832       H  0.59269255  0.15300182  0.06246891     0.07700
H1833       H  0.63203120  0.19313121  0.54556994     0.07700
H1834       H  0.64402198  0.16189748  0.56669644     0.04500
C1835       C  0.87730672  0.47453340  0.85532159    -0.21300
C1836       C  0.88209505  0.50067066  0.83943802    -0.07900
C1837       C  0.87947549  0.02748284  0.86017912     0.13000
C1838       C  0.85745693  0.02525531  0.88188349    -0.21400
C1839       C  0.83733172  0.49759214  0.88290762    -0.07900
C1840       C  0.85518880  0.47258222  0.87689467     0.12900
C1841       C  0.85180084  0.44394016  0.89335135    -0.24800
H1842       H  0.89098417  0.45534454  0.85081996     0.14200
H1843       H  0.85117565  0.04485143  0.89404477     0.14300
C1844       C  0.89404265  0.05709958  0.85536208    -0.24700
H1845       H  0.86866326  0.42733316  0.88658810     0.04500
H1846       H  0.82954612  0.43426347  0.88887325     0.07700
H1847       H  0.84195318  0.93617694  0.90088771     0.07700
H1848       H  0.86382581  0.55083888  0.80497287     0.07700
H1849       H  0.91857033  0.05500148  0.85774854     0.07700
H1850       H  0.88641466  0.07377734  0.87164876     0.04500
C1851       C  0.63695706  0.02620724  0.88215448    -0.21300
C1852       C  0.65404540  0.00041012  0.88518931    -0.07900
C1853       C  0.64506140  0.47083891  0.86913566     0.13000
C1854       C  0.62366120  0.47266589  0.84674446    -0.21400
C1855       C  0.60942601  0.49938772  0.83983734    -0.07900
C1856       C  0.61420436  0.02834835  0.86097968     0.12900
C1857       C  0.59645323  0.05658892  0.85925445    -0.24800
H1858       H  0.64159204  0.04492930  0.89624821     0.14200
H1859       H  0.61858081  0.45306007  0.83405109     0.14300
C1860       C  0.65994113  0.44141189  0.87436146    -0.24700
H1861       H  0.60280042  0.07233273  0.87698473     0.04500
H1862       H  0.57583801  0.55109461  0.85382825     0.07700
H1863       H  0.60050244  0.06778772  0.83786130     0.07700
H1864       H  0.65558567  0.43388728  0.89722602     0.07700
H1865       H  0.68907419  0.95179260  0.86431050     0.07700
H1866       H  0.65136833  0.42403609  0.85927825     0.04500
C1867       C  0.63749575  0.98073225  0.61550804    -0.21300
C1868       C  0.65393662  0.00661945  0.61057335    -0.07900
C1869       C  0.64666182  0.03236841  0.62685118     0.13000
C1870       C  0.62424001  0.03097928  0.64831961    -0.21400
C1871       C  0.60871637  0.00472997  0.65420420    -0.07900
C1872       C  0.61497600  0.97938100  0.63690712     0.12900
C1873       C  0.60943097  0.44213733  0.64687445    -0.24800
H1874       H  0.65095208  0.45539078  0.60727571     0.14200
H1875       H  0.61933715  0.05056693  0.66116561     0.14300
C1876       C  0.66275231  0.06127554  0.62263913    -0.24700
H1877       H  0.62083046  0.42475492  0.63379823     0.04500
H1878       H  0.57385861  0.95484118  0.63763546     0.07700
H1879       H  0.61508872  0.43821679  0.67041220     0.07700
H1880       H  0.65930107  0.06941643  0.59976724     0.07700
H1881       H  0.66932206  0.56429034  0.61281341     0.07700
H1882       H  0.65442900  0.07865660  0.63782327     0.04500
C1883       C  0.84185274  0.47524593  0.62563356    -0.21300
C1884       C  0.83998593  0.50087160  0.60828707    -0.07900
C1885       C  0.84936854  0.02963173  0.62506960     0.13000
C1886       C  0.87118579  0.02787662  0.64706182    -0.21400
C1887       C  0.88609493  0.00137640  0.65336980    -0.07900
C1888       C  0.86220325  0.47285703  0.64898909     0.12900
C1889       C  0.86163617  0.44522692  0.66757852    -0.24800
H1890       H  0.82658682  0.45719666  0.62153785     0.14200
H1891       H  0.87592440  0.04736587  0.66009012     0.14300
C1892       C  0.83324734  0.05860998  0.62116165    -0.24700
H1893       H  0.84405868  0.42960562  0.66023035     0.04500
H1894       H  0.85705090  0.45099011  0.69094967     0.07700
H1895       H  0.88323562  0.43350104  0.66588742     0.07700
H1896       H  0.80906542  0.05555520  0.62512906     0.07700
H1897       H  0.83702047  0.06725548  0.59860456     0.07700
H1898       H  0.84124053  0.07570084  0.63687471     0.04500
C1899       C  0.01820411  0.11686795  0.86144205    -0.21300
C1900       C  0.99267612  0.11470789  0.84355096    -0.07900
C1901       C  0.96824255  0.13367863  0.84908455     0.13000
C1902       C  0.47177880  0.15690651  0.87111705    -0.21400
C1903       C  0.49666972  0.15927161  0.88972310    -0.07900
C1904       C  0.52056917  0.13910417  0.88607709     0.12900
C1905       C  0.54712968  0.13889319  0.90654507    -0.24800
H1906       H  0.03674342  0.10213852  0.85748821     0.14200
H1907       H  0.45339791  0.17210530  0.87392201     0.14300
C1908       C  0.94021656  0.13317842  0.83063800    -0.24700
H1909       H  0.06397611  0.12085118  0.89668424     0.04500
H1910       H  0.04278383  0.13690690  0.92611701     0.07700
H1911       H  0.56007559  0.15957037  0.90401579     0.07700
H1912       H  0.92885893  0.11158544  0.83308605     0.07700
H1913       H  0.45016155  0.14004342  0.80519923     0.07700
H1914       H  0.42742857  0.15385319  0.83451794     0.04500
C1915       C  0.52659375  0.34918573  0.87370751    -0.21300
C1916       C  0.99575349  0.34355003  0.88724752    -0.07900
C1917       C  0.96912036  0.35486195  0.87458159     0.13000
C1918       C  0.97089623  0.37603135  0.85205766    -0.21400
C1919       C  0.99831841  0.38634417  0.84141017    -0.07900
C1920       C  0.52837955  0.36951469  0.85042085     0.12900
C1921       C  0.55614892  0.36972250  0.83178875    -0.24800
H1922       H  0.54512629  0.33428869  0.87757315     0.14200
H1923       H  0.95041438  0.38422542  0.84228915     0.14300
C1924       C  0.93857400  0.34481305  0.88406011    -0.24700
H1925       H  0.57250924  0.35283992  0.83917575     0.04500
H1926       H  0.56723030  0.39155491  0.83339629     0.07700
H1927       H  0.55038602  0.36483046  0.80844512     0.07700
H1928       H  0.93539180  0.34929687  0.90793680     0.07700
H1929       H  0.93581729  0.32091039  0.87943309     0.07700
H1930       H  0.92056668  0.35658176  0.87197482     0.04500
C1931       C  0.52323027  0.37543954  0.64510397    -0.21300
C1932       C  0.49570159  0.38741876  0.65341237    -0.07900
C1933       C  0.96300615  0.37363108  0.64205576     0.13000
C1934       C  0.96457633  0.35239506  0.61954833    -0.21400
C1935       C  0.99182053  0.34443147  0.60665790    -0.07900
C1936       C  0.52553419  0.35404420  0.62299949     0.12900
C1937       C  0.55603303  0.34186749  0.61639245    -0.24800
H1938       H  0.54329593  0.38229882  0.65654532     0.14200
H1939       H  0.94441001  0.34134973  0.61260498     0.14300
C1940       C  0.93295611  0.38018075  0.65529613    -0.24700
H1941       H  0.57367830  0.35241824  0.63000565     0.04500
H1942       H  0.56153919  0.34611127  0.59299399     0.07700
H1943       H  0.55666795  0.31782900  0.62107849     0.07700
H1944       H  0.92755231  0.40389814  0.65229484     0.07700
H1945       H  0.93296742  0.37439306  0.67911093     0.07700
H1946       H  0.91490993  0.36724773  0.64459407     0.04500
C1947       C  0.52476672  0.12551671  0.64216645    -0.21300
C1948       C  0.49737907  0.11848412  0.65528223    -0.07900
C1949       C  0.96788969  0.12169102  0.63571515     0.13000
C1950       C  0.96973003  0.14298702  0.61325177    -0.21400
C1951       C  0.50070267  0.16071033  0.60920461    -0.07900
C1952       C  0.52686874  0.14630652  0.61930636     0.12900
C1953       C  0.55712344  0.15225619  0.60625387    -0.24800
H1954       H  0.54488167  0.11477796  0.64997152     0.14200
H1955       H  0.95163762  0.14493327  0.59740879     0.14300
C1956       C  0.94087895  0.10196325  0.63684156    -0.24700
H1957       H  0.57461065  0.13791586  0.61608685     0.04500
H1958       H  0.56375986  0.17546345  0.61049499     0.07700
H1959       H  0.55662768  0.14782934  0.58215272     0.07700
H1960       H  0.92838457  0.10591063  0.65756259     0.07700
H1961       H  0.94781026  0.07846557  0.63560237     0.07700
H1962       H  0.92537369  0.10629010  0.61817167     0.04500
N1963       N  0.55618595  0.98392090  0.21148133    -0.07200
N1964       N  0.57279935  0.97371426  0.18978364    -0.59300
N1965       N  0.55934165  0.52325983  0.27963971    -0.06800
N1966       N  0.57604334  0.53397382  0.30109872    -0.61400
N1967       N  0.55944169  0.98424233  0.27921440    -0.06400
N1968       N  0.57663458  0.97434771  0.30068594    -0.59300
N1969       N  0.55883281  0.52157049  0.21157293    -0.06100
N1970       N  0.57461869  0.53095493  0.18882915    -0.61800
C1971       C  0.58438619  0.50575914  0.17578670     0.95000
C1972       C  0.58691217  0.99918768  0.31385795     0.94800
N1973       N  0.98145395  0.56911700  0.27948119    -0.07300
N1974       N  0.97056203  0.58584629  0.30074595    -0.59900
N1975       N  0.50857810  0.56936397  0.21130841    -0.05500
N1976       N  0.51858087  0.58465266  0.18873525    -0.61100
N1977       N  0.98279042  0.56727813  0.21143979    -0.07400
N1978       N  0.97298261  0.58242301  0.18851862    -0.60100
N1979       N  0.50909104  0.57183783  0.27932070    -0.05100
N1980       N  0.51879332  0.58943845  0.30057228    -0.61200
Mn1981     Mn  0.53477517  0.54732264  0.24550824     1.18400
C1982       C  0.99494955  0.59634630  0.31492183     0.97100
C1983       C  0.49362811  0.59368648  0.17461904     0.97800
N1984       N  0.51080461  0.93467130  0.28185649    -0.07400
N1985       N  0.52246282  0.91837798  0.30309133    -0.63700
N1986       N  0.98046122  0.93253021  0.21526670    -0.06200
N1987       N  0.96938445  0.91576002  0.19409919    -0.64400
N1988       N  0.50697295  0.93471955  0.21378786    -0.06900
N1989       N  0.51612348  0.91941219  0.19074637    -0.64000
N1990       N  0.98390058  0.93339441  0.28330432    -0.05800
N1991       N  0.97532462  0.91794240  0.30647010    -0.64700
Mn1992     Mn  0.53405312  0.95865287  0.24652709     1.10700
C1993       C  0.00126185  0.90924355  0.31912233     0.98300
C1994       C  0.49070144  0.90939718  0.17807164     0.98400
N1995       N  0.93437800  0.51780112  0.21120739    -0.06900
N1996       N  0.91843275  0.52695666  0.18844280    -0.62300
N1997       N  0.93350721  0.98101327  0.28458525    -0.06200
N1998       N  0.91651656  0.97033023  0.30568718    -0.59000
N1999       N  0.93277937  0.51983730  0.27873158    -0.07500
N2000       N  0.91522412  0.53070173  0.29921325    -0.61900
N2001       N  0.93040203  0.98079455  0.21751136    -0.06500
N2002       N  0.91236080  0.97026252  0.19709159    -0.59000
Mn2003     Mn  0.95710672  0.54423524  0.24516469     1.20200
Mn2004     Mn  0.95645940  0.95619152  0.25017424     1.10100
Cl2005     Cl  0.49572774  0.50665688  0.24670809    -0.87000
C2006       C  0.90900361  0.50163696  0.17555100     0.95300
C2007       C  0.90574290  0.99468399  0.31912456     0.95100
N2008       N  0.98514367  0.71393950  0.05674862    -0.07200
N2009       N  0.97606013  0.69164932  0.07314335    -0.59300
N2010       N  0.51028677  0.78642975  0.05771492    -0.06800
N2011       N  0.52012462  0.80858862  0.07399007    -0.61400
N2012       N  0.98277825  0.78189608  0.05918437    -0.06400
N2013       N  0.97222650  0.80280826  0.07658722    -0.59300
N2014       N  0.51132525  0.71836781  0.05687991    -0.06100
N2015       N  0.52208723  0.69686019  0.07330429    -0.61800
C2016       C  0.49760563  0.68291340  0.08350206     0.95000
C2017       C  0.99690364  0.81682911  0.08673355     0.94800
N2018       N  0.55986846  0.78502019  0.49109475    -0.07300
N2019       N  0.57626095  0.80763147  0.48272525    -0.59900
N2020       N  0.56038461  0.71929600  0.00814110    -0.05500
N2021       N  0.57671401  0.69736020  0.01835095    -0.61100
N2022       N  0.55846676  0.71711841  0.48672491    -0.07400
N2023       N  0.57381598  0.69498633  0.47551605    -0.60100
N2024       N  0.55931952  0.78681207  0.00895162    -0.05100
N2025       N  0.57617522  0.80792595  0.01977945    -0.61200
Mn2026     Mn  0.53602350  0.75273473  0.03359328     1.18400
C2027       C  0.58612101  0.81943880  0.50843427     0.97100
C2028       C  0.58278696  0.67943186  0.49948808     0.97800
N2029       N  0.93322017  0.78140371  0.01025334    -0.07400
N2030       N  0.91628356  0.80238609  0.02138551    -0.63700
N2031       N  0.93488315  0.72012081  0.48402904    -0.06200
N2032       N  0.91805646  0.69907909  0.47285558    -0.64400
N2033       N  0.93576342  0.71375336  0.00796362    -0.06900
N2034       N  0.92020156  0.69112754  0.01762526    -0.64000
N2035       N  0.93615238  0.78773115  0.48607336    -0.05800
N2036       N  0.92058171  0.81032624  0.47608805    -0.64700
Mn2037     Mn  0.95843553  0.74769821  0.03424862     1.10700
C2038       C  0.91056758  0.82381579  0.50080107     0.98300
C2039       C  0.90727150  0.68502303  0.49683007     0.98400
N2040       N  0.51025598  0.72093216  0.43696030    -0.06900
N2041       N  0.52054653  0.70024647  0.41918579    -0.62300
N2042       N  0.98562069  0.78808421  0.43814446    -0.06200
N2043       N  0.97580976  0.81090329  0.42290521    -0.59000
N2044       N  0.51125652  0.78866339  0.44089669    -0.07500
N2045       N  0.52194323  0.81014725  0.42436821    -0.61900
N2046       N  0.98437662  0.72003093  0.43551310    -0.06500
N2047       N  0.97392969  0.69888009  0.41829731    -0.59000
Mn2048     Mn  0.53577024  0.75304409  0.46327639     1.20200
Mn2049     Mn  0.95953580  0.75397501  0.46020758     1.10100
Cl2050     Cl  0.99889586  0.75203003  0.50051327    -0.87000
C2051       C  0.49581175  0.68752563  0.40777780     0.95300
C2052       C  0.00093025  0.82460714  0.41400115     0.95100
N2053       N  0.77875058  0.93531760  0.48492074    -0.07200
N2054       N  0.80104321  0.91989591  0.47409946    -0.59300
N2055       N  0.71199904  0.93721763  0.01119057    -0.06800
N2056       N  0.68995030  0.92073167  0.02080464    -0.61400
N2057       N  0.71034951  0.93625077  0.48778646    -0.06400
N2058       N  0.68759026  0.92003872  0.47921679    -0.59300
N2059       N  0.78020529  0.93566934  0.01240932    -0.06100
N2060       N  0.80111271  0.91752885  0.02218156    -0.61800
C2061       C  0.81679689  0.91152959  0.49811410     0.95000
C2062       C  0.67479873  0.91133945  0.50474174     0.94800
N2063       N  0.71267900  0.51842995  0.06005633    -0.07300
N2064       N  0.69026815  0.52945054  0.07521576    -0.59900
N2065       N  0.77948058  0.98494444  0.06177718    -0.05500
N2066       N  0.80008460  0.97464411  0.07979893    -0.61100
N2067       N  0.78145856  0.51803568  0.05961363    -0.07400
N2068       N  0.80444975  0.52847312  0.07459469    -0.60100
N2069       N  0.71125064  0.98569320  0.06055926    -0.05100
N2070       N  0.68932969  0.97603190  0.07738070    -0.61200
Mn2071     Mn  0.74580482  0.96012745  0.03722499     1.18400
C2072       C  0.67619175  0.50544580  0.08605614     0.97100
C2073       C  0.81306198  0.99924045  0.09084224     0.97800
N2074       N  0.70944186  0.98263352  0.43600080    -0.07400
N2075       N  0.68800344  0.97203489  0.41915848    -0.63700
N2076       N  0.78195265  0.51976907  0.43276985    -0.06200
N2077       N  0.80349621  0.52978797  0.41583883    -0.64400
N2078       N  0.77723086  0.98078842  0.43368780    -0.06900
N2079       N  0.79781140  0.96901196  0.41667319    -0.64000
N2080       N  0.71388966  0.51993768  0.43143397    -0.05800
N2081       N  0.69246049  0.53016255  0.41427358    -0.64700
Mn2082     Mn  0.74373722  0.95795129  0.46007266     1.10700
C2083       C  0.67924683  0.50546791  0.40367574     0.98300
C2084       C  0.81162459  0.99270280  0.40490826     0.98400
N2085       N  0.78053694  0.56476611  0.00935034    -0.06900
N2086       N  0.80239225  0.58116593  0.01948766    -0.62300
N2087       N  0.71294704  0.56732642  0.48095528    -0.06200
N2088       N  0.69030619  0.58238962  0.47022593    -0.59000
N2089       N  0.71226961  0.56550676  0.00910765    -0.07500
N2090       N  0.69048562  0.58283679  0.01815407    -0.61900
N2091       N  0.78104054  0.56814003  0.48218894    -0.06500
N2092       N  0.80258913  0.58543201  0.47270882    -0.59000
Mn2093     Mn  0.74665434  0.54243086  0.03531552     1.20200
Mn2094     Mn  0.74756605  0.54460242  0.45616764     1.10100
Cl2095     Cl  0.74705346  0.50442778  0.49542841    -0.87000
C2096       C  0.81546565  0.59549887  0.49781817     0.95300
C2097       C  0.67545095  0.59146196  0.49442250     0.95100
C2098       C  0.85857461  0.88639892  0.52397671    -0.21300
C2099       C  0.84341777  0.89193375  0.49736413    -0.07900
C2100       C  0.85338818  0.87768564  0.47126020     0.13000
C2101       C  0.87606346  0.85649798  0.47325423    -0.21400
C2102       C  0.88945604  0.84913865  0.50032612    -0.07900
C2103       C  0.88155998  0.86543937  0.52583528     0.12900
C2104       C  0.89715818  0.86125210  0.55506631    -0.24800
H2105       H  0.85195787  0.89812789  0.54380756     0.14200
H2106       H  0.88272874  0.84486878  0.45337713     0.14300
C2107       C  0.84024436  0.88393427  0.44117642    -0.24700
H2108       H  0.88955171  0.87753264  0.57177113     0.04500
H2109       H  0.92152772  0.86423926  0.55225609     0.07700
H2110       H  0.88761776  0.82960653  0.06137135     0.07700
H2111       H  0.84275806  0.90771207  0.43576880     0.07700
H2112       H  0.80592333  0.86914350  0.94367195     0.07700
H2113       H  0.85158840  0.87124137  0.42348644     0.04500
C2114       C  0.87242808  0.64898379  0.01899213    -0.21300
C2115       C  0.88519269  0.66076737  0.49611053    -0.10000
C2116       C  0.87522753  0.64705670  0.46972715     0.13000
C2117       C  0.85290436  0.62551690  0.47132945    -0.21400
C2118       C  0.84012552  0.61723964  0.49835781    -0.07900
C2119       C  0.84918718  0.62862589  0.02066883     0.12900
C2120       C  0.83244005  0.62657138  0.04943648    -0.24800
H2121       H  0.87760301  0.66219273  0.03830138     0.14200
H2122       H  0.84513377  0.61526522  0.45105608     0.14300
C2123       C  0.88768725  0.65468062  0.43977836    -0.24700
H2124       H  0.84111987  0.64219076  0.06629023     0.04500
H2125       H  0.83474475  0.60409443  0.05877100     0.07700
H2126       H  0.80859955  0.63199716  0.04581551     0.07700
H2127       H  0.91212462  0.65097387  0.43960699     0.07700
H2128       H  0.88258079  0.67801436  0.43427599     0.07700
H2129       H  0.87787199  0.64081722  0.42201223     0.04500
C2130       C  0.60860096  0.86300235  0.48478270    -0.21300
C2131       C  0.60653304  0.84507014  0.50993611    -0.07900
C2132       C  0.62499759  0.85119413  0.53463246     0.13000
C2133       C  0.64612392  0.87390645  0.53260939    -0.21400
C2134       C  0.64958514  0.89039495  0.50658282    -0.07900
C2135       C  0.62979703  0.88551980  0.48269004     0.12900
C2136       C  0.63052519  0.90381641  0.45485883    -0.24800
H2137       H  0.59391989  0.85894617  0.46619635     0.14200
H2138       H  0.66090010  0.87795089  0.55113503     0.14300
C2139       C  0.63686194  0.81973190  0.03924162    -0.24700
H2140       H  0.61172002  0.89842923  0.43981951     0.04500
H2141       H  0.64595765  0.91290664  0.93625456     0.07700
H2142       H  0.62885891  0.92762458  0.46045701     0.07700
H2143       H  0.63769209  0.79819084  0.02755347     0.07700
H2144       H  0.60134767  0.83539446  0.57277140     0.07700
H2145       H  0.65784841  0.82203909  0.05206121     0.04500
C2146       C  0.61607437  0.64681614  0.47069597    -0.21300
C2147       C  0.60332329  0.65378866  0.49808231    -0.07900
C2148       C  0.61157784  0.63700794  0.52321801     0.13000
C2149       C  0.63438388  0.61609015  0.52082174    -0.21400
C2150       C  0.64894596  0.61096615  0.49397565    -0.07900
C2151       C  0.63860050  0.62554442  0.46817133     0.12900
C2152       C  0.65125865  0.61964153  0.43792292    -0.24800
H2153       H  0.60909059  0.65874616  0.45115237     0.14200
H2154       H  0.64129909  0.60408969  0.54035229     0.14300
C2155       C  0.60304624  0.64955592  0.04956495    -0.24700
H2156       H  0.63978203  0.63269937  0.42051849     0.04500
H2157       H  0.64844473  0.59596570  0.43221291     0.07700
H2158       H  0.67960073  0.62507723  0.93501660     0.07700
H2159       H  0.57220882  0.63744641  0.54984885     0.07700
H2160       H  0.60860307  0.67230609  0.05677594     0.07700
H2161       H  0.61137616  0.63431236  0.06694893     0.04500
C2162       C  0.86231488  0.97039322  0.34187100    -0.21300
C2163       C  0.88285062  0.99373837  0.34232873    -0.07900
C2164       C  0.86531776  0.53248806  0.34394102     0.13000
C2165       C  0.84463910  0.53096696  0.36685596    -0.21400
C2166       C  0.83648612  0.99130242  0.38390238    -0.07900
C2167       C  0.83895721  0.96895979  0.36224045     0.12900
C2168       C  0.81648623  0.94438008  0.35948770    -0.24800
H2169       H  0.86399313  0.95361842  0.32487276     0.14200
H2170       H  0.83123642  0.55028558  0.37176154     0.14300
C2171       C  0.86752859  0.56096149  0.32678635    -0.24700
H2172       H  0.82112800  0.92996512  0.34020152     0.04500
H2173       H  0.79382572  0.95378235  0.35654889     0.07700
H2174       H  0.85776759  0.45463781  0.41685736     0.07700
H2175       H  0.90009476  0.05514798  0.34687745     0.07700
H2176       H  0.89005348  0.57060246  0.32949009     0.07700
H2177       H  0.85131161  0.57773767  0.33459926     0.04500
C2178       C  0.64022217  0.53270346  0.37613704    -0.21300
C2179       C  0.65447533  0.50567716  0.38202367    -0.07900
C2180       C  0.64565994  0.97075497  0.36645985     0.13000
C2181       C  0.62404599  0.97273058  0.34420050    -0.21400
C2182       C  0.60861608  0.99910472  0.33857704    -0.07900
C2183       C  0.61762417  0.53503083  0.35480559     0.12900
C2184       C  0.60343752  0.56480635  0.34971161    -0.24800
H2185       H  0.64696708  0.55226276  0.38808086     0.14200
H2186       H  0.61962497  0.95354221  0.33068832     0.14300
C2187       C  0.66205372  0.94189463  0.37010332    -0.24700
H2188       H  0.61224419  0.58177975  0.36512183     0.04500
H2189       H  0.57400390  0.04962216  0.35435585     0.07700
H2190       H  0.60815900  0.57255062  0.32696022     0.07700
H2191       H  0.65763401  0.93253341  0.39229921     0.07700
H2192       H  0.68365330  0.45134762  0.36591319     0.07700
H2193       H  0.65483112  0.92519214  0.35363132     0.04500
C2194       C  0.63987248  0.47933664  0.11770334    -0.21300
C2195       C  0.65018242  0.50626127  0.10635882    -0.07900
C2196       C  0.63601512  0.53276532  0.11545179     0.13000
C2197       C  0.61396463  0.53157167  0.13734724    -0.21400
C2198       C  0.60523727  0.50477224  0.15027325    -0.07900
C2199       C  0.61758827  0.47807543  0.13925836     0.12900
C2200       C  0.59679577  0.94406970  0.13874360    -0.24800
H2201       H  0.64134773  0.95547848  0.10137495     0.14200
H2202       H  0.60389679  0.55199872  0.14489080     0.14300
C2203       C  0.64376869  0.56248598  0.10256597    -0.24700
H2204       H  0.60444237  0.92738169  0.12246612     0.04500
H2205       H  0.58374430  0.44511716  0.14654228     0.07700
H2206       H  0.60125011  0.93491921  0.16104159     0.07700
H2207       H  0.64074735  0.56204296  0.07822644     0.07700
H2208       H  0.68209687  0.05432595  0.12589208     0.07700
H2209       H  0.62928199  0.58031229  0.11134255     0.04500
C2210       C  0.84039833  0.97212012  0.12965746    -0.21300
C2211       C  0.83607306  0.99869753  0.11427132    -0.07900
C2212       C  0.86311813  0.52786982  0.11038613     0.13000
C2213       C  0.88484149  0.52609636  0.13271501    -0.21400
C2214       C  0.88807035  0.50063299  0.15018771    -0.07900
C2215       C  0.86119805  0.96978995  0.15261872     0.12900
C2216       C  0.86371298  0.94074423  0.16872326    -0.24800
H2217       H  0.82709484  0.95301101  0.12400547     0.14200
H2218       H  0.89898170  0.54494066  0.13690972     0.14300
C2219       C  0.86097024  0.55577544  0.09243681    -0.24700
H2220       H  0.84750232  0.92422115  0.16034012     0.04500
H2221       H  0.85917831  0.94402181  0.19258328     0.07700
H2222       H  0.88628053  0.93130980  0.16563148     0.07700
H2223       H  0.83943960  0.56687926  0.09686846     0.07700
H2224       H  0.86288781  0.55052372  0.06856521     0.07700
H2225       H  0.87895083  0.57163252  0.09811115     0.04500
C2226       C  0.02127528  0.62245490  0.35573481    -0.21300
C2227       C  0.99455977  0.61759848  0.34019444    -0.07900
C2228       C  0.96888082  0.63378170  0.34863245     0.13000
C2229       C  0.46889773  0.65776257  0.37003822    -0.21400
C2230       C  0.49576083  0.66378758  0.38481930    -0.07900
C2231       C  0.52152860  0.64745459  0.37686267     0.12900
C2232       C  0.55103642  0.65142575  0.39235706    -0.24800
H2233       H  0.04085193  0.60981625  0.34990175     0.14200
H2234       H  0.44907308  0.66991286  0.37604815     0.14300
C2235       C  0.93912258  0.62974846  0.33368154    -0.24700
H2236       H  0.06951760  0.63053173  0.38651231     0.04500
H2237       H  0.04981904  0.64356097  0.41829836     0.07700
H2238       H  0.55968723  0.67401178  0.38839396     0.07700
H2239       H  0.93130392  0.60673935  0.33679032     0.07700
H2240       H  0.43951258  0.63778302  0.30814342     0.07700
H2241       H  0.42003612  0.64732139  0.34124356     0.04500
C2242       C  0.52193285  0.84740704  0.37138412    -0.21300
C2243       C  0.00164636  0.84925419  0.39261518    -0.07900
C2244       C  0.97719412  0.86842823  0.38775470     0.13000
C2245       C  0.97825395  0.88840304  0.36411917    -0.21400
C2246       C  0.00312571  0.89000879  0.34548170    -0.07900
C2247       C  0.52313400  0.86717424  0.34759398     0.12900
C2248       C  0.54867707  0.86459211  0.32621366    -0.24800
H2249       H  0.53939635  0.83110152  0.37388506     0.14200
H2250       H  0.95923996  0.90259172  0.35989338     0.14300
C2251       C  0.95011620  0.86841928  0.40739735    -0.24700
H2252       H  0.56380210  0.84603788  0.33195872     0.04500
H2253       H  0.56214835  0.88510974  0.32657359     0.07700
H2254       H  0.54000674  0.86052202  0.30359046     0.07700
H2255       H  0.95700858  0.87138170  0.43077817     0.07700
H2256       H  0.93763034  0.84746440  0.40489281     0.07700
H2257       H  0.93454826  0.88664325  0.40171695     0.04500
C2258       C  0.51759051  0.88332466  0.13780603    -0.21300
C2259       C  0.49029962  0.88949925  0.15168459    -0.07900
C2260       C  0.96715602  0.86886178  0.14540621     0.13000
C2261       C  0.96926925  0.84749358  0.12301152    -0.21400
C2262       C  0.99633419  0.84126698  0.10883939    -0.07900
C2263       C  0.51996574  0.86248218  0.11492867     0.12900
C2264       C  0.55015725  0.85754159  0.10127724    -0.24800
H2265       H  0.53755872  0.89446353  0.14532014     0.14200
H2266       H  0.94953989  0.83513474  0.11692148     0.14300
C2267       C  0.93719522  0.87381851  0.15949236    -0.24700
H2268       H  0.56713475  0.87297108  0.11026069     0.04500
H2269       H  0.54890635  0.86120200  0.07706071     0.07700
H2270       H  0.55804175  0.83481694  0.10602488     0.07700
H2271       H  0.93014056  0.89706634  0.15616058     0.07700
H2272       H  0.93835869  0.86861726  0.18341288     0.07700
H2273       H  0.91968682  0.85953456  0.14965894     0.04500
C2274       C  0.52114248  0.62891853  0.14356498    -0.21300
C2275       C  0.49421950  0.61431169  0.14922748    -0.07900
C2276       C  0.97577559  0.61477610  0.12896664     0.13000
C2277       C  0.97786579  0.63621123  0.10673259    -0.21400
C2278       C  0.49794175  0.65816708  0.10492554    -0.07900
C2279       C  0.52343474  0.65077412  0.12192813     0.12900
C2280       C  0.55296797  0.66623667  0.11851929    -0.24800
H2281       H  0.54062993  0.62392431  0.15694943     0.14200
H2282       H  0.95964356  0.63872936  0.09111122     0.14300
C2283       C  0.94876105  0.59502003  0.12964387    -0.24700
H2284       H  0.57008869  0.65754184  0.13401060     0.04500
H2285       H  0.55039366  0.69015754  0.12313867     0.07700
H2286       H  0.56154814  0.66287191  0.09588920     0.07700
H2287       H  0.93554673  0.59929250  0.14983732     0.07700
H2288       H  0.95579249  0.57152025  0.12904624     0.07700
H2289       H  0.93387192  0.59895019  0.11040288     0.04500
N2290       N  0.55999861  0.99071540  0.71424005    -0.07200
N2291       N  0.57629966  0.98033777  0.69239668    -0.59300
N2292       N  0.56166338  0.51327789  0.77917110    -0.06800
N2293       N  0.57799966  0.52383098  0.80093221    -0.61400
N2294       N  0.56017140  0.99070725  0.78209830    -0.06400
N2295       N  0.57639018  0.98023185  0.80400789    -0.59300
N2296       N  0.55906067  0.51272031  0.71140580    -0.06100
N2297       N  0.57498073  0.52289960  0.68916416    -0.61800
C2298       C  0.58524916  0.49826039  0.67557242     0.95000
C2299       C  0.58657566  0.00470679  0.81786677     0.94800
N2300       N  0.98213910  0.56169212  0.78000038    -0.07300
N2301       N  0.97215348  0.57831512  0.80169739    -0.59900
N2302       N  0.50841798  0.56018541  0.71320625    -0.05500
N2303       N  0.51743495  0.57609775  0.69065817    -0.61100
N2304       N  0.98038967  0.56085644  0.71206960    -0.07400
N2305       N  0.96982227  0.57738303  0.69043718    -0.60100
N2306       N  0.51154544  0.56175699  0.78108355    -0.05100
N2307       N  0.52179583  0.57998540  0.80155093    -0.61200
Mn2308     Mn  0.53594966  0.53775711  0.74622443     1.18400
C2309       C  0.99702342  0.58850277  0.81511684     0.97100
C2310       C  0.49190127  0.58543579  0.67775462     0.97800
N2311       N  0.51056566  0.94259916  0.78237779    -0.07400
N2312       N  0.52118850  0.92587737  0.80369957    -0.63700
N2313       N  0.98352396  0.94000797  0.71530306    -0.06200
N2314       N  0.97331044  0.92104376  0.69572524    -0.64400
N2315       N  0.51023443  0.94115333  0.71475660    -0.06900
N2316       N  0.51986378  0.92213641  0.69484471    -0.64000
N2317       N  0.98413366  0.94107362  0.78255825    -0.05800
N2318       N  0.97442246  0.92355095  0.80363343    -0.64700
Mn2319     Mn  0.53599110  0.96568277  0.74822276     1.10700
C2320       C  0.99957806  0.91354279  0.81673377     0.98300
C2321       C  0.49459125  0.91088513  0.68285143     0.98400
N2322       N  0.93070510  0.51208737  0.71417569    -0.06900
N2323       N  0.91362599  0.52184250  0.69253901    -0.62300
N2324       N  0.93380310  0.98856511  0.78251210    -0.06200
N2325       N  0.91848744  0.97815399  0.80497641    -0.59000
N2326       N  0.93294373  0.51332902  0.78153852    -0.07500
N2327       N  0.91572799  0.52424919  0.80229282    -0.61900
N2328       N  0.93332963  0.98800382  0.71468685    -0.06500
N2329       N  0.91764650  0.97721672  0.69252469    -0.59000
Mn2330     Mn  0.95590400  0.53768491  0.74685947     1.20200
Mn2331     Mn  0.95796683  0.96383349  0.74875004     1.10100
Cl2332     Cl  0.49693611  0.49713781  0.74824275    -0.87000
C2333       C  0.90262393  0.49689130  0.68020602     0.95300
C2334       C  0.90807060  0.00268441  0.81854225     0.95100
N2335       N  0.98312473  0.71654315  0.56315294    -0.07200
N2336       N  0.97288132  0.69457212  0.57942462    -0.59300
N2337       N  0.51049466  0.78128277  0.56854844    -0.06800
N2338       N  0.52125073  0.80188350  0.58616765    -0.61400
N2339       N  0.98447133  0.78449138  0.56525499    -0.06400
N2340       N  0.97477086  0.80556073  0.58292048    -0.59300
N2341       N  0.50890146  0.71371150  0.56394200    -0.06100
N2342       N  0.51898018  0.69110289  0.57919522    -0.61800
C2343       C  0.49419331  0.67756678  0.58913368     0.95000
C2344       C  0.00001837  0.81799758  0.59368072     0.94800
N2345       N  0.55965404  0.78730246  0.97995825    -0.07300
N2346       N  0.57678599  0.80888222  0.97037496    -0.59900
N2347       N  0.55808859  0.71542691  0.51566240    -0.05500
N2348       N  0.57318114  0.69215893  0.52470999    -0.61100
N2349       N  0.56069169  0.71948830  0.97913258    -0.07400
N2350       N  0.57726030  0.69761627  0.96907871    -0.60100
N2351       N  0.55963744  0.78307828  0.52003882    -0.05100
N2352       N  0.57582331  0.80425359  0.53194360    -0.61200
Mn2353     Mn  0.53501374  0.74831627  0.54268141     1.18400
C2354       C  0.58693032  0.82143766  0.99553583     0.97100
C2355       C  0.58707206  0.68383187  0.99384191     0.97800
N2356       N  0.93571720  0.78712594  0.51508362    -0.07400
N2357       N  0.91975563  0.80933037  0.52535512    -0.63700
N2358       N  0.93526047  0.71458074  0.97896588    -0.06200
N2359       N  0.91931258  0.69255966  0.96833772    -0.64400
N2360       N  0.93444876  0.71926409  0.51301947    -0.06900
N2361       N  0.91730659  0.69753834  0.52212368    -0.64000
N2362       N  0.93275163  0.78232971  0.98124158    -0.05800
N2363       N  0.91543598  0.80402586  0.97211092    -0.64700
Mn2364     Mn  0.95856372  0.75184027  0.53988479     1.10700
C2365       C  0.90538816  0.81649519  0.99739357     0.98300
C2366       C  0.91018989  0.67794293  0.99268805     0.98400
N2367       N  0.51191300  0.71973893  0.92960059    -0.06900
N2368       N  0.52283898  0.69828504  0.91317342    -0.62300
N2369       N  0.98129148  0.78525541  0.93131305    -0.06200
N2370       N  0.97049489  0.80701373  0.91509218    -0.59000
N2371       N  0.51054932  0.78771163  0.93104467    -0.07500
N2372       N  0.52051407  0.81042107  0.91582388    -0.61900
N2373       N  0.98364170  0.71711279  0.92954142    -0.06500
N2374       N  0.97423968  0.69461706  0.91347780    -0.59000
Mn2375     Mn  0.53644196  0.75357744  0.95415082     1.20200
Mn2376     Mn  0.95736486  0.74988133  0.95446426     1.10100
Cl2377     Cl  0.99761881  0.75022339  0.99400464    -0.87000
C2378       C  0.49847640  0.68424734  0.90264854     0.95300
C2379       C  0.99506083  0.82128305  0.90531599     0.95100
N2380       N  0.78029090  0.93629612  0.98341657    -0.07200
N2381       N  0.80111470  0.91881613  0.97291379    -0.59300
N2382       N  0.71172206  0.93726920  0.51673634    -0.06800
N2383       N  0.68986274  0.92179188  0.52846115    -0.61400
N2384       N  0.71231829  0.93768802  0.98219852    -0.06400
N2385       N  0.69042957  0.92160384  0.97138537    -0.59300
N2386       N  0.78047078  0.93655603  0.51384847    -0.06100
N2387       N  0.80410173  0.92185139  0.52324215    -0.61800
C2388       C  0.81402879  0.90714794  0.99718177     0.95000
C2389       C  0.67653903  0.91144110  0.99573755     0.94800
N2390       N  0.71227265  0.51793843  0.55877265    -0.07300
N2391       N  0.69042833  0.52801299  0.57534836    -0.59900
N2392       N  0.78229496  0.98753541  0.56069794    -0.05500
N2393       N  0.80425544  0.97818197  0.57769446    -0.61100
N2394       N  0.78077912  0.51776187  0.55927825    -0.07400
N2395       N  0.80276302  0.52733217  0.57615698    -0.60100
N2396       N  0.71383586  0.98856035  0.56289400    -0.05100
N2397       N  0.69211983  0.97979480  0.58040706    -0.61200
Mn2398     Mn  0.74715419  0.96165243  0.53936315     1.18400
C2399       C  0.67662759  0.50339191  0.58515993     0.97100
C2400       C  0.81793639  0.00334227  0.58642568     0.97800
N2401       N  0.71398315  0.98634548  0.93384796    -0.07400
N2402       N  0.69219591  0.97608252  0.91734303    -0.63700
N2403       N  0.77967260  0.51320773  0.93322554    -0.06200
N2404       N  0.80055783  0.52273473  0.91529638    -0.64400
N2405       N  0.78200014  0.98534199  0.93521317    -0.06900
N2406       N  0.80377156  0.97460131  0.91906700    -0.64000
N2407       N  0.71177818  0.51340700  0.93376367    -0.05800
N2408       N  0.69013458  0.52270325  0.91636683    -0.64700
Mn2409     Mn  0.74715651  0.96082105  0.95803313     1.10700
C2410       C  0.67671651  0.49748712  0.90735429     0.98300
C2411       C  0.81789007  0.99882352  0.90884803     0.98400
N2412       N  0.78058293  0.56762871  0.51116574    -0.06900
N2413       N  0.80181063  0.58451397  0.52197553    -0.62300
N2414       N  0.71249237  0.56427424  0.98014148    -0.06200
N2415       N  0.69096239  0.58058035  0.96891945    -0.59000
N2416       N  0.71222739  0.56700893  0.50994507    -0.07500
N2417       N  0.68897504  0.58198321  0.51950719    -0.61900
N2418       N  0.78085847  0.56405637  0.98037439    -0.06500
N2419       N  0.80307949  0.58021734  0.97020639    -0.59000
Mn2420     Mn  0.74648055  0.54338999  0.53559821     1.20200
Mn2421     Mn  0.74627544  0.53944136  0.95614795     1.10100
Cl2422     Cl  0.74637726  0.50127586  0.99734634    -0.87000
C2423       C  0.81631495  0.59081146  0.99500569     0.95300
C2424       C  0.67728743  0.59209067  0.99278804     0.95100
C2425       C  0.85364315  0.87852929  0.02275878    -0.21300
C2426       C  0.83813017  0.88463605  0.99648874    -0.07900
C2427       C  0.84567400  0.86874609  0.97053341     0.13000
C2428       C  0.86802748  0.84725611  0.97182997    -0.21400
C2429       C  0.88312313  0.84071762  0.99815889    -0.07900
C2430       C  0.87607202  0.85692332  0.02401130     0.12900
C2431       C  0.89212638  0.85214758  0.05292573    -0.24800
H2432       H  0.84818295  0.89078134  0.04258928     0.14200
H2433       H  0.87336036  0.83501128  0.95196411     0.14300
C2434       C  0.83012973  0.87343351  0.94132882    -0.24700
H2435       H  0.88467865  0.86795898  0.07013835     0.04500
H2436       H  0.91643685  0.85531743  0.04986928     0.07700
H2437       H  0.89242415  0.83895961  0.56400106     0.07700
H2438       H  0.83396529  0.89628487  0.93353224     0.07700
H2439       H  0.81640480  0.87754537  0.44066745     0.07700
H2440       H  0.83861725  0.85839034  0.92390277     0.04500
C2441       C  0.87309389  0.65177989  0.52314812    -0.21300
C2442       C  0.88818370  0.65366200  0.99277463    -0.10000
C2443       C  0.88146064  0.63619734  0.96768391     0.13000
C2444       C  0.85829870  0.61545341  0.96937350    -0.21400
C2445       C  0.84168984  0.61171301  0.99533632    -0.07900
C2446       C  0.85070156  0.63046811  0.52473748     0.12900
C2447       C  0.83857639  0.62289173  0.55477767    -0.24800
H2448       H  0.88078703  0.66198392  0.54345992     0.14200
H2449       H  0.85292860  0.60226404  0.95010011     0.14300
C2450       C  0.89858484  0.63886240  0.93921392    -0.24700
H2451       H  0.84990759  0.63530282  0.57273066     0.04500
H2452       H  0.84211044  0.59912171  0.55915091     0.07700
H2453       H  0.81452000  0.62838610  0.55585066     0.07700
H2454       H  0.92273008  0.63565736  0.94349905     0.07700
H2455       H  0.89470323  0.66083851  0.92910664     0.07700
H2456       H  0.89151886  0.62202670  0.92279911     0.04500
C2457       C  0.60794648  0.86732416  0.97513255    -0.21300
C2458       C  0.60939836  0.84485254  0.99638368    -0.07900
C2459       C  0.63291635  0.84442978  0.01719458     0.13000
C2460       C  0.65409402  0.86692276  0.01654770    -0.21400
C2461       C  0.65273856  0.88935370  0.99532861    -0.07900
C2462       C  0.62944991  0.88969579  0.97431225     0.12900
C2463       C  0.62672872  0.91378420  0.95150657    -0.24800
H2464       H  0.58992229  0.86738118  0.95921765     0.14200
H2465       H  0.67229811  0.86656206  0.03225483     0.14300
C2466       C  0.62371282  0.83337402  0.56272162    -0.24700
H2467       H  0.60617968  0.91139431  0.93801918     0.04500
H2468       H  0.65134502  0.89948140  0.44249054     0.07700
H2469       H  0.62599632  0.93566188  0.96253903     0.07700
H2470       H  0.62866985  0.80984843  0.55795866     0.07700
H2471       H  0.61826855  0.81982012  0.05529829     0.07700
H2472       H  0.64017564  0.84114452  0.57933663     0.04500
C2473       C  0.62085290  0.64990143  0.96685375    -0.21300
C2474       C  0.60825206  0.65852738  0.99385768    -0.07900
C2475       C  0.61678616  0.64328621  0.01991902     0.13000
C2476       C  0.63869165  0.62130541  0.01838810    -0.21400
C2477       C  0.65240755  0.61374499  0.99166825    -0.07900
C2478       C  0.64270867  0.62778170  0.96529018     0.12900
C2479       C  0.65536318  0.62032954  0.93538203    -0.24800
H2480       H  0.61403660  0.66099591  0.94673447     0.14200
H2481       H  0.64543280  0.61016679  0.03850317     0.14300
C2482       C  0.59657981  0.64050504  0.55266428    -0.24700
H2483       H  0.64488858  0.63354962  0.91748383     0.04500
H2484       H  0.65125886  0.59671306  0.93024736     0.07700
H2485       H  0.67516295  0.62578960  0.43736231     0.07700
H2486       H  0.57854748  0.64665360  0.04810242     0.07700
H2487       H  0.60149964  0.66257955  0.56206861     0.07700
H2488       H  0.60441680  0.62387508  0.56896676     0.04500
C2489       C  0.87396247  0.97491450  0.85069912    -0.21300
C2490       C  0.88725631  0.00203112  0.84374349    -0.07900
C2491       C  0.86427640  0.52576615  0.84547233     0.13000
C2492       C  0.84227949  0.52380951  0.86715443    -0.21400
C2493       C  0.84295558  0.99843620  0.88769902    -0.07900
C2494       C  0.85189969  0.97268798  0.87229096     0.12900
C2495       C  0.83817831  0.94279691  0.87761968    -0.24800
H2496       H  0.88018305  0.95531113  0.83851087     0.14200
H2497       H  0.82854194  0.54297526  0.87153282     0.14300
C2498       C  0.86742543  0.55452593  0.82895163    -0.24700
H2499       H  0.84817804  0.92542285  0.86346307     0.04500
H2500       H  0.81398440  0.94346731  0.87258104     0.07700
H2501       H  0.85475308  0.44802683  0.91733746     0.07700
H2502       H  0.88832613  0.06571397  0.83312595     0.07700
H2503       H  0.88983656  0.56402203  0.83291194     0.07700
H2504       H  0.85088926  0.57121933  0.83625490     0.04500
C2505       C  0.63725677  0.52305002  0.87927951    -0.21300
C2506       C  0.65242506  0.49661492  0.88530453    -0.07900
C2507       C  0.64761976  0.97571116  0.86706536     0.13000
C2508       C  0.62483181  0.97783526  0.84609129    -0.21400
C2509       C  0.60846515  0.00393610  0.84228110    -0.07900
C2510       C  0.61582307  0.52485368  0.85683603     0.12900
C2511       C  0.60030702  0.55400777  0.85192507    -0.24800
H2512       H  0.64246368  0.54262261  0.89197135     0.14200
H2513       H  0.62043092  0.95912156  0.83191014     0.14300
C2514       C  0.66515541  0.94730776  0.86850132    -0.24700
H2515       H  0.60713192  0.57081052  0.86846508     0.04500
H2516       H  0.57236264  0.05170104  0.86172190     0.07700
H2517       H  0.60600455  0.56292155  0.82983811     0.07700
H2518       H  0.66231487  0.93681901  0.89042633     0.07700
H2519       H  0.68426580  0.44329718  0.87053576     0.07700
H2520       H  0.65758426  0.93107138  0.85172141     0.04500
C2521       C  0.64112064  0.47534773  0.61621144    -0.21300
C2522       C  0.65132918  0.50293925  0.60637635    -0.07900
C2523       C  0.63762115  0.52884269  0.61759573     0.13000
C2524       C  0.61562110  0.52626148  0.63940161    -0.21400
C2525       C  0.60657809  0.49868900  0.65040558    -0.07900
C2526       C  0.61896438  0.47275576  0.63782902     0.12900
C2527       C  0.59809871  0.95081548  0.64040623    -0.24800
H2528       H  0.64250054  0.96115714  0.60267189     0.14200
H2529       H  0.60576913  0.54621106  0.64833647     0.14300
C2530       C  0.64580020  0.55938624  0.60709688    -0.24700
H2531       H  0.60480030  0.93417082  0.62368016     0.04500
H2532       H  0.58512136  0.43946147  0.64323633     0.07700
H2533       H  0.60263744  0.94108345  0.66243857     0.07700
H2534       H  0.64236273  0.56105103  0.58286859     0.07700
H2535       H  0.68688003  0.05834965  0.62716808     0.07700
H2536       H  0.63186509  0.57671012  0.61758202     0.04500
C2537       C  0.85831372  0.97787875  0.61370152    -0.21300
C2538       C  0.84252452  0.00412995  0.60827097    -0.07900
C2539       C  0.86011612  0.52426984  0.61360381     0.13000
C2540       C  0.88061300  0.52187477  0.63686786    -0.21400
C2541       C  0.88166946  0.49672742  0.65495253    -0.07900
C2542       C  0.87989835  0.97603523  0.63609079     0.12900
C2543       C  0.89567864  0.94699080  0.64080474    -0.24800
H2544       H  0.85335766  0.95843067  0.60067104     0.14200
H2545       H  0.89579936  0.53996529  0.64108946     0.14300
C2546       C  0.86050855  0.55169717  0.59487228    -0.24700
H2547       H  0.88892407  0.93022849  0.62418941     0.04500
H2548       H  0.89012654  0.93793111  0.66287148     0.07700
H2549       H  0.92011490  0.95011469  0.63889509     0.07700
H2550       H  0.83949524  0.56412838  0.59804301     0.07700
H2551       H  0.86320761  0.54564348  0.57127103     0.07700
H2552       H  0.87912664  0.56666080  0.60097227     0.04500
C2553       C  0.02476241  0.62179547  0.84921094    -0.21300
C2554       C  0.99724077  0.61027833  0.83990512    -0.07900
C2555       C  0.97091394  0.62059852  0.85383558     0.13000
C2556       C  0.47212266  0.65159350  0.86742346    -0.21400
C2557       C  0.49898370  0.65912480  0.88135870    -0.07900
C2558       C  0.52509396  0.64297529  0.87409111     0.12900
C2559       C  0.55484254  0.64921590  0.88831878    -0.24800
H2560       H  0.04502918  0.61356951  0.83929957     0.14200
H2561       H  0.45207808  0.66380674  0.87278622     0.14300
C2562       C  0.94049082  0.60829780  0.84684027    -0.24700
H2563       H  0.07515157  0.64325212  0.86734339     0.04500
H2564       H  0.06085098  0.65264125  0.90296026     0.07700
H2565       H  0.56238233  0.67178616  0.88246145     0.07700
H2566       H  0.94033800  0.58409206  0.85069205     0.07700
H2567       H  0.44280510  0.62747503  0.80713680     0.07700
H2568       H  0.42336619  0.63932538  0.83943649     0.04500
C2569       C  0.51946663  0.85070400  0.86576431    -0.21300
C2570       C  0.99534559  0.84628791  0.88411092    -0.07900
C2571       C  0.96937333  0.86132664  0.87462357     0.13000
C2572       C  0.97189557  0.88357031  0.85322779    -0.21400
C2573       C  0.99950366  0.89129071  0.84083139    -0.07900
C2574       C  0.52074424  0.87221947  0.84370215     0.12900
C2575       C  0.54657371  0.87123162  0.82248799    -0.24800
H2576       H  0.53703031  0.83429580  0.86705320     0.14200
H2577       H  0.95188976  0.89477750  0.84586344     0.14300
C2578       C  0.93889218  0.85439492  0.88667177    -0.24700
H2579       H  0.56152488  0.85215882  0.82681993     0.04500
H2580       H  0.56024644  0.89149488  0.82477461     0.07700
H2581       H  0.53820294  0.86907516  0.79949762     0.07700
H2582       H  0.93882654  0.85720441  0.91102194     0.07700
H2583       H  0.93251393  0.83147205  0.88079847     0.07700
H2584       H  0.92152746  0.86925894  0.87741997     0.04500
C2585       C  0.52103552  0.87968653  0.64634859    -0.21300
C2586       C  0.49413300  0.88690216  0.66034740    -0.07900
C2587       C  0.97328250  0.86728726  0.65559514     0.13000
C2588       C  0.97482812  0.84560529  0.63357056    -0.21400
C2589       C  0.00039802  0.84176215  0.61629387    -0.07900
C2590       C  0.52286474  0.85677093  0.62555854     0.12900
C2591       C  0.55252465  0.85097026  0.61121216    -0.24800
H2592       H  0.54090247  0.89210519  0.65165175     0.14200
H2593       H  0.95588028  0.83118038  0.63011019     0.14300
C2594       C  0.94536390  0.86890097  0.67398198    -0.24700
H2595       H  0.56983742  0.86683228  0.61864643     0.04500
H2596       H  0.55036017  0.85321544  0.58688866     0.07700
H2597       H  0.56051188  0.82851309  0.61702490     0.07700
H2598       H  0.93391369  0.89029516  0.67026015     0.07700
H2599       H  0.95104144  0.86623136  0.69771528     0.07700
H2600       H  0.92928034  0.85120734  0.66814250     0.04500
C2601       C  0.51867796  0.61985993  0.64538173    -0.21300
C2602       C  0.49144941  0.60683426  0.65294354    -0.07900
C2603       C  0.96941436  0.61681835  0.63521482     0.13000
C2604       C  0.97143140  0.63976372  0.61442458    -0.21400
C2605       C  0.49431105  0.65214888  0.60990468    -0.07900
C2606       C  0.52051819  0.64258232  0.62465890     0.12900
C2607       C  0.55057279  0.65665184  0.62005458    -0.24800
H2608       H  0.53883850  0.61307261  0.65668862     0.14200
H2609       H  0.95189934  0.64565425  0.60159556     0.14300
C2610       C  0.94021383  0.60071241  0.63827848    -0.24700
H2611       H  0.56826395  0.64619613  0.63370017     0.04500
H2612       H  0.54970210  0.68034346  0.62622860     0.07700
H2613       H  0.55726758  0.65422178  0.59674687     0.07700
H2614       H  0.93063789  0.60470863  0.66046385     0.07700
H2615       H  0.94367194  0.57668693  0.63482475     0.07700
H2616       H  0.92354235  0.60833371  0.62178206     0.04500
loop_ 
_geom_bond_atom_site_label_1 
_geom_bond_atom_site_label_2 
_geom_bond_distance 
_geom_bond_site_symmetry_2 
_ccdc_geom_bond_type 
N1            N2   1.318       .  A
N1          N661   1.315       .  A
N1          Mn30   2.197       .  S
N2          C663   1.353       .  A
N3            N4   1.319       .  A
N3          N659   1.315   1_545  A
N3          Mn19   2.194       .  S
N4          C664   1.352   1_545  A
N5            N6   1.316       .  A
N5          N657   1.314       .  A
N5          Mn30   2.191       .  S
N6           C10   1.353       .  A
N7            N8   1.320       .  A
N7          N655   1.314   1_545  A
N7          Mn19   2.208       .  S
N8            C9   1.357   1_545  A
C9          N656   1.349       .  A
C9          C236   1.485       .  S
C10         N658   1.351       .  A
C10         C220   1.480       .  S
N11          N12   1.319       .  A
N11        N1325   1.313       .  A
N11         Mn41   2.196       .  S
N12          C20   1.353       .  A
N13          N14   1.317       .  A
N13        N1323   1.314   1_455  A
N13         Mn19   2.192       .  S
N14          C21   1.353   1_455  A
N15          N16   1.319       .  A
N15        N1321   1.314       .  A
N15         Mn41   2.185       .  S
N16        C1329   1.352       .  A
N17          N18   1.323       .  A
N17        N1319   1.314   1_455  A
N17         Mn19   2.214       .  S
N18        C1328   1.358   1_455  A
Mn19        Cl43   2.545   1_445  S
C20        N1326   1.357       .  A
C20         C265   1.492       .  S
C21        N1324   1.355       .  A
C21         C313   1.490       .  S
N22          N23   1.320       .  A
N22        N1336   1.314   1_455  A
N22         Mn30   2.204       .  S
N23        C1339   1.354   1_455  A
N24          N25   1.319       .  A
N24        N1334   1.313       .  A
N24         Mn42   2.195       .  S
N25        C1340   1.353       .  A
N26          N27   1.323       .  A
N26        N1332   1.313   1_455  A
N26         Mn30   2.207       .  S
N27          C32   1.358   1_455  A
N28          N29   1.320       .  A
N28        N1330   1.313       .  A
N28         Mn42   2.204       .  S
N29          C31   1.357       .  A
Mn30       Cl697   2.545   1_455  S
C31        N1331   1.353       .  A
C31         C284   1.493       .  S
C32        N1333   1.350       .  A
C32         C297   1.491       .  S
N33          N34   1.319       .  A
N33         N693   1.314   1_545  A
N33         Mn41   2.197       .  S
N34          C44   1.354   1_545  A
N35          N36   1.316       .  A
N35         N691   1.315       .  A
N35         Mn42   2.190       .  S
N36          C45   1.352       .  A
N37          N38   1.314       .  A
N37         N689   1.314   1_545  A
N37         Mn41   2.175       .  S
N38         C699   1.347       .  A
N39          N40   1.317       .  A
N39         N687   1.314       .  A
N39         Mn42   2.192       .  S
N40         C698   1.351       .  A
Mn41      Cl1351   2.538   1_545  S
Mn42      Cl2005   2.540       .  S
Cl43       Mn684   2.541   1_655  S
Cl43      Mn1349   2.539   1_565  S
Cl43      Mn2004   2.546       .  S
C44         N694   1.349       .  A
C44         C252   1.476       .  S
C45         N692   1.354       .  A
C45         C201   1.481       .  S
N46          N47   1.318       .  A
N46        N1360   1.314       .  A
N46         Mn75   2.190       .  S
N47        C1362   1.352       .  A
N48          N49   1.318       .  A
N48        N1358   1.313   1_455  A
N48         Mn64   2.180       .  S
N49        C1363   1.350   1_455  A
N50          N51   1.319       .  A
N50        N1356   1.313       .  A
N50         Mn75   2.198       .  S
N51          C55   1.355       .  A
N52          N53   1.320       .  A
N52        N1354   1.312   1_455  A
N52         Mn64   2.204       .  S
N53          C54   1.355   1_455  A
C54        N1355   1.354       .  A
C54         C316   1.491       .  S
C55        N1357   1.352       .  A
C55         C300   1.486       .  S
N56          N57   1.320       .  A
N56         N389   1.314       .  A
N56         Mn86   2.197       .  S
N57          C65   1.354       .  A
N58          N59   1.312       .  A
N58         N387   1.313   1_554  A
N58         Mn64   2.168       .  S
N59         C393   1.346       .  A
N60          N61   1.321       .  A
N60         N385   1.314       .  A
N60         Mn86   2.206       .  S
N61          C66   1.357       .  A
N62          N63   1.318       .  A
N62         N383   1.315   1_554  A
N62         Mn64   2.194       .  S
N63         C392   1.351       .  A
Mn64      Cl1723   2.533   1_455  S
C65         N390   1.352       .  A
C65         C169   1.481       .  S
C66         N386   1.348       .  A
C66         C185   1.483       .  S
N67          N68   1.319       .  A
N67         N400   1.314   1_554  A
N67         Mn75   2.193       .  S
N68         C403   1.352       .  A
N69          N70   1.319       .  A
N69         N398   1.314       .  A
N69         Mn87   2.195       .  S
N70          C77   1.352       .  A
N71          N72   1.319       .  A
N71         N396   1.314   1_554  A
N71         Mn75   2.196       .  S
N72         C404   1.354       .  A
N73          N74   1.320       .  A
N73         N394   1.315       .  A
N73         Mn87   2.210       .  S
N74          C76   1.356       .  A
Mn75       Cl415   2.543       .  S
C76         N395   1.350       .  A
C76         C140   1.478       .  S
C77         N399   1.356       .  A
C77         C153   1.491       .  S
N78          N79   1.321       .  A
N78        N1392   1.314   1_455  A
N78         Mn86   2.199       .  S
N79          C89   1.354   1_455  A
N80          N81   1.318       .  A
N80        N1390   1.314       .  A
N80         Mn87   2.195       .  S
N81          C90   1.352       .  A
N82          N83   1.321       .  A
N82        N1388   1.314   1_455  A
N82         Mn86   2.207       .  S
N83        C1398   1.357   1_455  A
N84          N85   1.321       .  A
N84        N1386   1.314       .  A
N84         Mn87   2.211       .  S
N85        C1397   1.357       .  A
Mn86      Cl1396   2.551   1_455  S
Mn87        Cl88   2.539       .  S
Cl88      Mn1699   2.536       .  S
Cl88       Mn402   2.545       .  S
Cl88      Mn1394   2.548       .  S
C89        N1393   1.356       .  A
C89         C268   1.494       .  S
C90        N1391   1.357       .  A
C90         C281   1.493       .  S
N91          N92   1.316       .  A
N91         N424   1.314       .  A
N91        Mn120   2.183       .  S
N92          C99   1.348       .  A
N93          N94   1.319       .  A
N93         N422   1.313   1_554  A
N93        Mn109   2.192       .  S
N94         C427   1.354       .  A
N95          N96   1.322       .  A
N95         N420   1.314       .  A
N95        Mn120   2.205       .  S
N96         C100   1.355       .  A
N97          N98   1.323       .  A
N97         N418   1.313   1_554  A
N97        Mn109   2.209       .  S
N98         C426   1.358       .  A
C99         N425   1.357       .  A
C99         C137   1.480       .  S
C100        N421   1.351       .  A
C100        C172   1.480       .  S
N101        N102   1.317       .  A
N101        N761   1.313   1_545  A
N101       Mn131   2.188       .  S
N102        C110   1.351       .  A
N103        N104   1.316       .  A
N103        N759   1.314       .  A
N103       Mn109   2.185       .  S
N104        C111   1.352       .  A
N105        N106   1.317       .  A
N105        N757   1.314   1_545  A
N105       Mn131   2.187       .  S
N106        C765   1.351   1_545  A
N107        N108   1.318       .  A
N107        N755   1.313       .  A
N107       Mn109   2.200       .  S
N108        C764   1.355       .  A
Mn109     Cl1114   2.543   1_554  S
C110        N762   1.356   1_545  A
C110        C233   1.486       .  S
C111        N760   1.355       .  A
C111        C249   1.482       .  S
N112        N113   1.316       .  A
N112        N772   1.313       .  A
N112       Mn120   2.181       .  S
N113        C775   1.350       .  A
N114        N115   1.317       .  A
N114        N770   1.313   1_545  A
N114       Mn132   2.189       .  S
N115        C776   1.354       .  A
N116        N117   1.317       .  A
N116        N768   1.314       .  A
N116       Mn120   2.198       .  S
N117        C122   1.352       .  A
N118        N119   1.320       .  A
N118        N766   1.314   1_545  A
N118       Mn132   2.204       .  S
N119        C121   1.356   1_545  A
Mn120      Cl787   2.533       .  S
C121        N767   1.353       .  A
C121        C217   1.489       .  S
C122        N769   1.354       .  A
C122        C204   1.483       .  S
N123        N124   1.318       .  A
N123        N456   1.314   1_554  A
N123       Mn131   2.193       .  S
N124        C461   1.352       .  A
N125        N126   1.319       .  A
N125        N454   1.313       .  A
N125       Mn132   2.191       .  S
N126        C135   1.353       .  A
N127        N128   1.316       .  A
N127        N452   1.312   1_554  A
N127       Mn131   2.186       .  S
N128        C462   1.354   1_554  A
N129        N130   1.321       .  A
N129        N450   1.313       .  A
N129       Mn132   2.205       .  S
N130        C134   1.357       .  A
Mn131      Cl460   2.531   1_554  S
Mn132      Cl133   2.549       .  S
Cl133     Mn1090   2.553   1_545  S
Cl133      Mn774   2.529   1_545  S
Cl133      Mn458   2.531       .  S
C134        N451   1.352       .  A
C134        C156   1.491       .  S
C135        N455   1.353       .  A
C135        C188   1.483       .  S
C136        C137   1.403       .  A
C136        C141   1.406       .  A
C136        H143   1.086       .  S
C137        C138   1.417       .  A
C138        C139   1.399       .  A
C138        C145   1.509       .  S
C139        C140   1.400       .  A
C139        H144   1.086       .  S
C140        C141   1.417       .  A
C141        C142   1.508       .  S
C142        H146   1.111       .  S
C142        H147   1.110       .  S
C142        H475   1.109       .  S
C145        H149   1.109       .  S
C145        H151   1.111       .  S
C145        H477   1.111       .  S
H148        C469   1.109       .  S
H150        C472   1.109       .  S
C152        C157   1.402       .  A
C152        C480   1.404       .  A
C152        H159   1.087       .  S
C153        C154   1.420       .  A
C153        C479   1.405       .  A
C154        C155   1.404       .  A
C154        C161   1.509       .  S
C155        C156   1.405       .  A
C155        H160   1.085       .  S
C156        C484   1.420       .  A
C157        C483   1.420       .  A
C157        C158   1.508       .  S
C158        H162   1.111       .  S
C158        H163   1.108       .  S
C158        H164   1.110       .  S
C161        H165   1.110       .  S
C161        H166   1.110       .  S
C161        H167   1.111       .  S
C168        C169   1.405       .  A
C168        C173   1.405       .  A
C168        H175   1.084       .  S
C169        C170   1.416       .  A
C170        C171   1.400       .  A
C170        C504   1.509       .  S
C171        C172   1.403       .  A
C171        H176   1.084       .  S
C172        C173   1.414       .  A
C173        C174   1.507       .  S
C174        H178   1.111       .  S
C174        H180   1.111       .  S
C174        H506   1.108       .  S
C177        C497   1.508       .  S
C177        H181   1.110       .  S
C177        H183   1.111       .  S
C177        H509   1.108       .  S
H179        C501   1.109       .  S
H182        C504   1.110       .  S
C184        C185   1.405       .  A
C184        C189   1.404       .  A
C184        H191   1.080       .  S
C185        C186   1.419       .  A
C186        C187   1.398       .  A
C186        C520   1.511       .  S
C187        C188   1.404       .  A
C187        H192   1.080       .  S
C188        C189   1.417       .  A
C189        C190   1.508       .  S
C190        H194   1.111       .  S
C190        H195   1.111       .  S
C190        H523   1.109       .  S
C193        C513   1.510       .  S
C193        H198   1.110       .  S
C193        H199   1.111       .  S
C193        H524   1.108       .  S
H196        C517   1.109       .  S
H197        C520   1.110       .  S
C200        C201   1.402       .  A
C200        C205   1.398       .  A
C200        H207   1.086       .  S
C201        C856   1.415       .  A
C202        C203   1.397       .  A
C202        C855   1.420       .  A
C202        C209   1.509       .  S
C203        C858   1.401       .  A
C203        H208   1.083       .  S
C204        C205   1.418       .  A
C204        C857   1.406       .  A
C205        C206   1.509       .  S
C206        H210   1.111       .  S
C206        H211   1.110       .  S
C206        H866   1.110       .  S
C209        H214   1.106       .  S
C209        H215   1.111       .  S
C209        H867   1.110       .  S
H212        C860   1.111       .  S
H213        C863   1.109       .  S
C216        C217   1.405   1_545  A
C216        C221   1.405       .  A
C216        H223   1.082       .  S
C217        C872   1.419       .  A
C218        C219   1.397       .  A
C218        C871   1.417       .  A
C218        C225   1.509       .  S
C219        C220   1.404       .  A
C219        H224   1.081       .  S
C220        C875   1.417       .  A
C221        C874   1.419   1_545  A
C221        C222   1.509       .  S
C222        H226   1.111       .  S
C222        H228   1.110       .  S
C222        H881   1.110       .  S
C225        H229   1.108       .  S
C225        H231   1.111       .  S
C225        H884   1.111       .  S
H227        C876   1.110       .  S
H230        C879   1.110       .  S
C232        C233   1.404   1_565  A
C232        C237   1.402       .  A
C232        H893   1.085       .  S
C233        C234   1.419       .  A
C234        C235   1.401       .  A
C234        C241   1.509       .  S
C235        C236   1.403   1_545  A
C235        H240   1.085       .  S
C236        C237   1.420       .  A
C237        C892   1.510       .  S
C238        C891   1.509       .  S
C238        H242   1.111       .  S
C238        H244   1.109       .  S
C238        H897   1.110       .  S
H239        C886   1.086       .  S
C241        H245   1.110       .  S
C241        H247   1.111       .  S
C241        H900   1.110       .  S
H243        C892   1.110       .  S
H246        C895   1.110       .  S
C248        C249   1.404       .  A
C248        C253   1.398       .  A
C248        H255   1.084       .  S
C249        C904   1.416       .  A
C250        C251   1.401       .  A
C250        C903   1.414   1_545  A
C250        C257   1.508       .  S
C251        C252   1.403   1_545  A
C251        H256   1.083       .  S
C252        C907   1.417       .  A
C253        C906   1.416       .  A
C253        C254   1.509       .  S
C254        H258   1.111       .  S
C254        H259   1.110       .  S
C254        H260   1.110       .  S
C257        H261   1.109       .  S
C257        H262   1.111       .  S
C257        H263   1.111       .  S
C264        C265   1.405       .  A
C264       C1577   1.405       .  A
C264        H271   1.083       .  S
C265        C266   1.419       .  A
C266       C1575   1.403       .  A
C266        C273   1.506       .  S
C267        C268   1.404       .  A
C267       C1574   1.403       .  A
C267        H272   1.083       .  S
C268        C269   1.420   1_655  A
C269       C1572   1.409       .  A
C269        C270   1.508       .  S
C270        H276   1.110       .  S
C270       H1582   1.111       .  S
C270       H1583   1.110       .  S
C273        H277   1.110       .  S
C273       H1586   1.109       .  S
C273       H1587   1.111       .  S
H274       C1578   1.111       .  S
H275       C1578   1.110       .  S
H278       C1581   1.110       .  S
H279       C1581   1.111       .  S
C280        C285   1.405       .  A
C280       C1589   1.406   1_455  A
C280        H287   1.083       .  S
C281        C282   1.420       .  A
C281       C1588   1.406       .  A
C282        C283   1.403       .  A
C282        C289   1.509       .  S
C283        C284   1.404       .  A
C283        H288   1.083       .  S
C284       C1593   1.420       .  A
C285       C1592   1.418   1_455  A
C285        C286   1.508       .  S
C286        H290   1.111       .  S
C286        H291   1.111       .  S
C286        H292   1.109       .  S
C289        H293   1.110       .  S
C289        H294   1.110       .  S
C289        H295   1.111       .  S
C296        C297   1.405   1_455  A
C296        C301   1.406       .  A
C296        H303   1.084       .  S
C297       C1606   1.421       .  A
C298        C299   1.403       .  A
C298       C1605   1.417       .  A
C298        C305   1.508       .  S
C299        C300   1.405       .  A
C299        H304   1.086       .  S
C300       C1609   1.418       .  A
C301       C1608   1.421   1_455  A
C301        C302   1.508       .  S
C302        H306   1.111       .  S
C302        H307   1.110       .  S
C302        H308   1.110       .  S
C305        H309   1.110       .  S
C305        H310   1.109       .  S
C305        H311   1.111       .  S
C312        C313   1.406   1_455  A
C312        C317   1.402       .  A
C312        H319   1.085       .  S
C313       C1622   1.418       .  A
C314        C315   1.402       .  A
C314       C1621   1.416       .  A
C314        C321   1.508       .  S
C315       C1624   1.404       .  A
C315        H320   1.086       .  S
C316        C317   1.417   1_655  A
C316       C1623   1.407       .  A
C317        C318   1.507       .  S
C318        H322   1.111       .  S
C318        H323   1.109       .  S
C318        H324   1.110       .  S
C321        H325   1.110       .  S
C321        H326   1.109       .  S
C321        H327   1.111       .  S
N328        N329   1.320       .  A
N328        N988   1.314       .  A
N328       Mn357   2.196       .  S
N329        C990   1.353       .  A
N330        N986   1.314   1_545  A
N330        N331   1.320       .  A
N330       Mn346   2.186       .  S
N331        C991   1.352       .  A
N332        N984   1.314       .  A
N332        N333   1.319       .  A
N332       Mn357   2.199       .  S
N333        C337   1.355       .  A
N334        N982   1.315   1_545  A
N334        N335   1.320       .  A
N334       Mn346   2.202       .  S
N335        C336   1.356       .  A
C336        N983   1.351   1_545  A
C336        C563   1.486       .  S
C337        N985   1.352       .  A
C337        C547   1.484       .  S
N338       N1652   1.314       .  A
N338        N339   1.317       .  A
N338       Mn368   2.191       .  S
N339        C347   1.351       .  A
N340        N341   1.318       .  A
N340       N1650   1.313   1_455  A
N340       Mn346   2.194       .  S
N341        C348   1.354   1_455  A
N342       N1648   1.312       .  A
N342        N343   1.316       .  A
N342       Mn368   2.181       .  S
N343       C1656   1.350       .  A
N344       N1646   1.313   1_455  A
N344        N345   1.320       .  A
N344       Mn346   2.198       .  S
N345       C1655   1.355   1_455  A
Mn346      Cl370   2.544   1_455  S
C347       N1653   1.359       .  A
C347        C592   1.491       .  S
C348       N1651   1.353       .  A
C348        C640   1.481       .  S
N349        N350   1.319       .  A
N349       N1663   1.314   1_455  A
N349       Mn357   2.196       .  S
N350       C1666   1.353   1_455  A
N351       N1661   1.313       .  A
N351        N352   1.319       .  A
N351       Mn369   2.191       .  S
N352       C1667   1.353       .  A
N353       N1659   1.313   1_455  A
N353        N354   1.319       .  A
N353       Mn357   2.201       .  S
N354        C359   1.356   1_455  A
N355       N1657   1.313       .  A
N355        N356   1.320       .  A
N355       Mn369   2.197       .  S
N356        C358   1.354       .  A
Mn357     Cl1024   2.543   1_455  S
C358       N1658   1.353       .  A
C358        C611   1.486       .  S
C359       N1660   1.351       .  A
C359        C624   1.486       .  S
N360        N361   1.317       .  A
N360       N1020   1.315   1_545  A
N360       Mn368   2.190       .  S
N361        C371   1.352       .  A
N362        N363   1.317       .  A
N362       N1018   1.314       .  A
N362       Mn369   2.187       .  S
N363        C372   1.352       .  A
N364       N1016   1.312   1_545  A
N364        N365   1.317       .  A
N364       Mn368   2.176       .  S
N365       C1026   1.350       .  A
N366       N1014   1.313       .  A
N366        N367   1.318       .  A
N366       Mn369   2.191       .  S
N367       C1025   1.352       .  A
Mn368     Cl1678   2.532       .  S
Mn369     Cl2332   2.543       .  S
Cl370     Mn1011   2.538   1_645  S
Cl370     Mn1676   2.538       .  S
Cl370     Mn2331   2.539   1_545  S
C371       N1021   1.353   1_545  A
C371        C579   1.479       .  S
C372       N1019   1.352       .  A
C372        C528   1.473       .  S
N373        N374   1.318       .  A
N373       N1687   1.313       .  A
N373       Mn402   2.194       .  S
N374       C1689   1.355       .  A
N375       N1685   1.313   1_455  A
N375        N376   1.315       .  A
N375       Mn391   2.178       .  S
N376       C1690   1.349   1_455  A
N377       N1683   1.313       .  A
N377        N378   1.320       .  A
N377       Mn402   2.198       .  S
N378        C382   1.355       .  A
N379       N1681   1.313   1_455  A
N379        N380   1.318       .  A
N379       Mn391   2.195       .  S
N380        C381   1.352   1_455  A
C381       N1682   1.354       .  A
C381        C643   1.483       .  S
C382       N1684   1.351       .  A
C382        C627   1.485       .  S
N383        N384   1.320       .  A
N383       Mn413   2.201       .  S
N384        C392   1.355   1_556  A
N385        N386   1.314       .  A
N385       Mn391   2.178       .  S
N387        N388   1.320       .  A
N387       Mn413   2.195       .  S
N388        C393   1.355   1_556  A
N389        N390   1.318       .  A
N389       Mn391   2.193       .  S
Mn391     Cl1396   2.530   1_455  S
C392        C496   1.483       .  S
C393        C512   1.474       .  S
N394        N395   1.319       .  A
N394       Mn402   2.187       .  S
N396        N397   1.321       .  A
N396       Mn414   2.203       .  S
N397        C404   1.354   1_556  A
N398        N399   1.320       .  A
N398       Mn402   2.204       .  S
N400        N401   1.321       .  A
N400       Mn414   2.213       .  S
N401        C403   1.357   1_556  A
C403        C467   1.492       .  S
C404        C480   1.488       .  S
N405        N406   1.321       .  A
N405       N1719   1.314   1_455  A
N405       Mn413   2.199       .  S
N406        C416   1.354   1_455  A
N407        N408   1.320       .  A
N407       N1717   1.314       .  A
N407       Mn414   2.199       .  S
N408        C417   1.353       .  A
N409       N1715   1.314   1_455  A
N409        N410   1.321       .  A
N409       Mn413   2.206       .  S
N410       C1725   1.357   1_455  A
N411       N1713   1.315       .  A
N411        N412   1.322       .  A
N411       Mn414   2.216       .  S
N412       C1724   1.357       .  A
Mn413     Cl1723   2.550   1_456  S
Mn414      Cl415   2.544   1_556  S
Cl415     Mn1372   2.541       .  S
Cl415     Mn1721   2.545   1_554  S
C416       N1720   1.353       .  A
C416        C595   1.483       .  S
C417       N1718   1.354       .  A
C417        C608   1.484       .  S
N418        N419   1.317       .  A
N418       Mn447   2.186       .  S
N419        C426   1.350   1_556  A
N420        N421   1.317       .  A
N420       Mn436   2.187       .  S
N422        N423   1.318       .  A
N422       Mn447   2.191       .  S
N423        C427   1.352   1_556  A
N424        N425   1.324       .  A
N424       Mn436   2.211       .  S
C426        C464   1.492       .  S
C427        C499   1.481       .  S
N428       N1088   1.314   1_545  A
N428        N429   1.317       .  A
N428       Mn458   2.182       .  S
N429        C437   1.349       .  A
N430        N431   1.318       .  A
N430       N1086   1.314       .  A
N430       Mn436   2.191       .  S
N431        C438   1.353       .  A
N432       N1084   1.314   1_545  A
N432        N433   1.317       .  A
N432       Mn458   2.190       .  S
N433       C1092   1.351       .  A
N434       N1082   1.313       .  A
N434        N435   1.321       .  A
N434       Mn436   2.205       .  S
N435       C1091   1.356       .  A
Mn436      Cl787   2.545       .  S
C437       N1089   1.358   1_545  A
C437        C560   1.487       .  S
C438       N1087   1.353       .  A
C438        C576   1.484       .  S
N439        N440   1.317       .  A
N439       N1099   1.314       .  A
N439       Mn447   2.183       .  S
N440       C1102   1.350       .  A
N441       N1097   1.313   1_545  A
N441        N442   1.319       .  A
N441       Mn459   2.184       .  S
N442       C1103   1.354       .  A
N443       N1095   1.314       .  A
N443        N444   1.317       .  A
N443       Mn447   2.185       .  S
N444        C449   1.350       .  A
N445       N1093   1.313   1_545  A
N445        N446   1.322       .  A
N445       Mn459   2.201       .  S
N446        C448   1.356       .  A
Mn447     Cl1114   2.535       .  S
C448       N1094   1.350   1_545  A
C448        C544   1.485       .  S
C449       N1096   1.353       .  A
C449        C531   1.472       .  S
N450        N451   1.318       .  A
N450       Mn458   2.189       .  S
N452        N453   1.316       .  A
N452       Mn459   2.171       .  S
N453        C462   1.349       .  A
N454        N455   1.316       .  A
N454       Mn458   2.189       .  S
N456        N457   1.321       .  A
N456       Mn459   2.209       .  S
N457        C461   1.357   1_556  A
Mn459      Cl460   2.550       .  S
Cl460      Mn763   2.545   1_546  S
Cl460     Mn1101   2.528   1_545  S
C461        C483   1.489       .  S
C462        C515   1.473       .  S
C463        C464   1.405       .  A
C463        C468   1.406       .  A
C463        H470   1.083       .  S
C464        C465   1.421   1_554  A
C465        C466   1.404       .  A
C465        C472   1.510       .  S
C466        C467   1.404   1_556  A
C466        H471   1.083       .  S
C467        C468   1.421       .  A
C468        C469   1.508       .  S
C469        H473   1.111       .  S
C469        H474   1.111       .  S
C472        H476   1.111       .  S
C472        H478   1.111       .  S
C479        C484   1.404       .  A
C479        H486   1.085       .  S
C480        C481   1.418   1_554  A
C481        C482   1.405       .  A
C481        C488   1.508       .  S
C482        C483   1.405   1_556  A
C482        H487   1.087       .  S
C484        C485   1.509       .  S
C485        H489   1.111       .  S
C485        H490   1.111       .  S
C485        H491   1.109       .  S
C488        H492   1.111       .  S
C488        H493   1.109       .  S
C488        H494   1.111       .  S
C495        C496   1.404   1_556  A
C495        C500   1.403       .  A
C495        H502   1.084       .  S
C496        C497   1.418       .  A
C497        C498   1.401       .  A
C498        C499   1.403       .  A
C498        H503   1.084       .  S
C499        C500   1.416   1_554  A
C500        C501   1.508       .  S
C501        H505   1.111       .  S
C501        H507   1.111       .  S
C504        H508   1.110       .  S
C504        H510   1.111       .  S
C511        C512   1.403   1_556  A
C511        C516   1.401       .  A
C511        H518   1.082       .  S
C512        C513   1.418       .  A
C513        C514   1.394       .  A
C514        C515   1.400   1_554  A
C514        H519   1.082       .  S
C515        C516   1.417       .  A
C516        C517   1.509       .  S
C517        H521   1.111       .  S
C517        H522   1.110       .  S
C520        H525   1.110       .  S
C520        H526   1.111       .  S
C527        C528   1.402       .  A
C527        C532   1.398       .  A
C527        H534   1.084       .  S
C528       C1183   1.414       .  A
C529       C1182   1.418       .  A
C529        C530   1.401       .  A
C529        C536   1.509       .  S
C530       C1185   1.404       .  A
C530        H535   1.084       .  S
C531       C1184   1.403       .  A
C531        C532   1.415       .  A
C532        C533   1.509       .  S
C533        H537   1.111       .  S
C533        H538   1.111       .  S
C533       H1193   1.109       .  S
C536       H1194   1.110       .  S
C536        H541   1.110       .  S
C536        H542   1.111       .  S
H539       C1187   1.106       .  S
H540       C1190   1.108       .  S
C543        C544   1.407       .  A
C543        C548   1.407       .  A
C543        H550   1.081       .  S
C544       C1199   1.419   1_545  A
C545       C1198   1.419       .  A
C545        C546   1.401       .  A
C545        C552   1.509       .  S
C546        C547   1.403       .  A
C546        H551   1.085       .  S
C547       C1202   1.418       .  A
C548       C1201   1.418       .  A
C548        C549   1.507       .  S
C549        H553   1.111       .  S
C549       H1208   1.110       .  S
C549        H555   1.109       .  S
C552        H556   1.109       .  S
C552       H1211   1.110       .  S
C552        H558   1.111       .  S
H554       C1203   1.111       .  S
H557       C1206   1.110       .  S
C559        C560   1.403   1_565  A
C559        C564   1.403       .  A
C559       H1220   1.086       .  S
C560        C561   1.421       .  A
C561        C562   1.402       .  A
C561        C568   1.509       .  S
C562        C563   1.403       .  A
C562        H567   1.086       .  S
C563        C564   1.419   1_545  A
C564       C1219   1.509       .  S
C565       C1218   1.509       .  S
C565        H569   1.111       .  S
C565       H1224   1.111       .  S
C565        H571   1.109       .  S
H566       C1213   1.083       .  S
C568        H572   1.111       .  S
C568       H1227   1.110       .  S
C568        H574   1.111       .  S
H570       C1219   1.111       .  S
H573       C1222   1.110       .  S
C575        C576   1.404       .  A
C575        C580   1.401       .  A
C575        H582   1.084       .  S
C576       C1231   1.416       .  A
C577       C1230   1.416       .  A
C577        C578   1.400       .  A
C577        C584   1.509       .  S
C578        C579   1.403       .  A
C578        H583   1.081       .  S
C579       C1234   1.415   1_545  A
C580       C1233   1.417       .  A
C580        C581   1.508       .  S
C581        H585   1.111       .  S
C581        H586   1.110       .  S
C581        H587   1.108       .  S
C584        H588   1.110       .  S
C584        H589   1.109       .  S
C584        H590   1.111       .  S
C591        C592   1.406       .  A
C591       C1904   1.409       .  A
C591        H598   1.083       .  S
C592        C593   1.420       .  A
C593       C1902   1.403       .  A
C593        C600   1.509       .  S
C594       C1901   1.400       .  A
C594        C595   1.404       .  A
C594        H599   1.083       .  S
C595        C596   1.416   1_655  A
C596       C1899   1.405       .  A
C596        C597   1.508       .  S
C597       H1909   1.111       .  S
C597       H1910   1.110       .  S
C597        H603   1.109       .  S
C600        H604   1.109       .  S
C600       H1913   1.110       .  S
C600       H1914   1.111       .  S
H601       C1905   1.111       .  S
H602       C1905   1.111       .  S
H605       C1908   1.111       .  S
H606       C1908   1.111       .  S
C607       C1916   1.405   1_455  A
C607        C612   1.405       .  A
C607        H614   1.085       .  S
C608       C1915   1.404       .  A
C608        C609   1.416       .  A
C609        C610   1.404       .  A
C609        C616   1.509       .  S
C610        C611   1.405       .  A
C610        H615   1.085       .  S
C611       C1920   1.417       .  A
C612       C1919   1.419   1_455  A
C612        C613   1.509       .  S
C613        H617   1.111       .  S
C613        H618   1.110       .  S
C613        H619   1.110       .  S
C616        H620   1.111       .  S
C616        H621   1.109       .  S
C616        H622   1.111       .  S
C623        C624   1.403   1_455  A
C623        C628   1.400       .  A
C623        H630   1.081       .  S
C624       C1933   1.419       .  A
C625       C1932   1.417       .  A
C625        C626   1.404       .  A
C625        C632   1.507       .  S
C626        C627   1.406       .  A
C626        H631   1.084       .  S
C627       C1936   1.419       .  A
C628       C1935   1.420   1_455  A
C628        C629   1.510       .  S
C629        H633   1.111       .  S
C629        H634   1.110       .  S
C629        H635   1.110       .  S
C632        H636   1.110       .  S
C632        H637   1.109       .  S
C632        H638   1.111       .  S
C639        C640   1.402   1_455  A
C639        C644   1.400       .  A
C639        H646   1.086       .  S
C640       C1949   1.416       .  A
C641       C1948   1.419       .  A
C641        C642   1.400       .  A
C641        C648   1.510       .  S
C642       C1951   1.404       .  A
C642        H647   1.084       .  S
C643       C1950   1.405       .  A
C643        C644   1.417   1_655  A
C644        C645   1.509       .  S
C645        H649   1.111       .  S
C645        H650   1.111       .  S
C645        H651   1.109       .  S
C648        H652   1.110       .  S
C648        H653   1.110       .  S
C648        H654   1.111       .  S
N655        N656   1.316       .  A
N655       Mn684   2.176       .  S
N657        N658   1.318       .  A
N657       Mn673   2.184       .  S
N659        N660   1.320       .  A
N659       Mn684   2.207       .  S
N660        C664   1.356       .  A
N661        N662   1.319       .  A
N661       Mn673   2.196       .  S
N662        C663   1.354       .  A
C663        C890   1.486       .  S
C664        C874   1.489       .  S
N665       N1979   1.314       .  A
N665        N666   1.319       .  A
N665       Mn695   2.199       .  S
N666        C674   1.353       .  A
N667        N668   1.317       .  A
N667       N1977   1.312   1_455  A
N667       Mn673   2.185       .  S
N668        C675   1.352   1_455  A
N669       N1975   1.313       .  A
N669        N670   1.321       .  A
N669       Mn695   2.200       .  S
N670       C1983   1.354       .  A
N671       N1973   1.314   1_455  A
N671        N672   1.322       .  A
N671       Mn673   2.210       .  S
N672       C1982   1.357   1_455  A
Mn673      Cl697   2.540   1_455  S
C674       N1980   1.358       .  A
C674        C919   1.496       .  S
C675       N1978   1.352       .  A
C675        C967   1.477       .  S
N676        N677   1.316       .  A
N676       N1990   1.313   1_455  A
N676       Mn684   2.182       .  S
N677       C1993   1.350       .  A
N678       N1988   1.314       .  A
N678        N679   1.323       .  A
N678       Mn696   2.215       .  S
N679       C1994   1.357       .  A
N680       N1986   1.313   1_455  A
N680        N681   1.321       .  A
N680       Mn684   2.209       .  S
N681        C686   1.357   1_455  A
N682       N1984   1.314       .  A
N682        N683   1.320       .  A
N682       Mn696   2.193       .  S
N683        C685   1.354       .  A
C685       N1985   1.353       .  A
C685        C938   1.483       .  S
C686       N1987   1.353       .  A
C686        C951   1.494       .  S
N687        N688   1.320       .  A
N687       Mn695   2.193       .  S
N688        C698   1.354       .  A
N689        N690   1.322       .  A
N689       Mn696   2.209       .  S
N690        C699   1.358   1_565  A
N691        N692   1.321       .  A
N691       Mn695   2.201       .  S
N693        N694   1.316       .  A
N693       Mn696   2.184       .  S
Mn695     Cl2005   2.545       .  S
Mn696     Cl1351   2.549       .  S
Cl697     Mn2003   2.544       .  S
Cl697     Mn1350   2.536       .  S
C698        C906   1.481       .  S
C699        C855   1.483       .  S
N700        N701   1.319       .  A
N700       N2014   1.312       .  A
N700       Mn729   2.191       .  S
N701       C2016   1.355       .  A
N702       N2012   1.313   1_455  A
N702        N703   1.319       .  A
N702       Mn718   2.196       .  S
N703       C2017   1.353   1_455  A
N704       N2010   1.313       .  A
N704        N705   1.321       .  A
N704       Mn729   2.206       .  S
N705        C709   1.356       .  A
N706       N2008   1.312   1_455  A
N706        N707   1.317       .  A
N706       Mn718   2.184       .  S
N707        C708   1.351       .  A
C708       N2009   1.354   1_455  A
C708        C970   1.478       .  S
C709       N2011   1.355       .  A
C709        C954   1.497       .  S
N710       N1043   1.313       .  A
N710        N711   1.319       .  A
N710       Mn740   2.195       .  S
N711        C719   1.354       .  A
N712        N713   1.316       .  A
N712       N1041   1.313   1_554  A
N712       Mn718   2.185       .  S
N713       C1047   1.350   1_554  A
N714       N1039   1.314       .  A
N714        N715   1.318       .  A
N714       Mn740   2.193       .  S
N715        C720   1.354       .  A
N716       N1037   1.313   1_554  A
N716        N717   1.315       .  A
N716       Mn718   2.178       .  S
N717       C1046   1.349   1_554  A
Mn718     Cl2377   2.536   1_454  S
C719       N1044   1.350       .  A
C719        C823   1.479       .  S
C720       N1040   1.352       .  A
C720        C839   1.485       .  S
N721        N722   1.315       .  A
N721       N1054   1.313   1_554  A
N721       Mn729   2.177       .  S
N722       C1057   1.349   1_554  A
N723       N1052   1.314       .  A
N723        N724   1.320       .  A
N723       Mn741   2.196       .  S
N724        C731   1.354       .  A
N725       N1050   1.315   1_554  A
N725        N726   1.318       .  A
N725       Mn729   2.198       .  S
N726       C1058   1.355   1_554  A
N727       N1048   1.315       .  A
N727        N728   1.318       .  A
N727       Mn741   2.205       .  S
N728        C730   1.354       .  A
Mn729     Cl1069   2.542   1_554  S
C730       N1049   1.353       .  A
C730        C794   1.486       .  S
C731       N1053   1.351       .  A
C731        C807   1.482       .  S
N732        N733   1.321       .  A
N732       N2046   1.314   1_455  A
N732       Mn740   2.202       .  S
N733        C743   1.354   1_455  A
N734        N735   1.320       .  A
N734       N2044   1.314       .  A
N734       Mn741   2.198       .  S
N735        C744   1.353       .  A
N736       N2042   1.313   1_455  A
N736        N737   1.318       .  A
N736       Mn740   2.195       .  S
N737       C2052   1.355       .  A
N738       N2040   1.314       .  A
N738        N739   1.322       .  A
N738       Mn741   2.215       .  S
N739       C2051   1.358       .  A
Mn740     Cl2050   2.545   1_455  S
Mn741      Cl742   2.541       .  S
Cl742     Mn2353   2.537       .  S
Cl742     Mn1056   2.547       .  S
Cl742     Mn2048   2.543       .  S
C743       N2047   1.356       .  A
C743        C922   1.495       .  S
C744       N2045   1.354       .  A
C744        C935   1.481       .  S
N745        N746   1.314       .  A
N745       N1078   1.314       .  A
N745       Mn774   2.188       .  S
N746        C753   1.349       .  A
N747       N1076   1.312   1_554  A
N747        N748   1.317       .  A
N747       Mn763   2.187       .  S
N748       C1081   1.353   1_554  A
N749       N1074   1.314       .  A
N749        N750   1.317       .  A
N749       Mn774   2.183       .  S
N750        C754   1.350       .  A
N751       N1072   1.314   1_554  A
N751        N752   1.319       .  A
N751       Mn763   2.201       .  S
N752       C1080   1.356   1_554  A
C753       N1079   1.359       .  A
C753        C791   1.490       .  S
C754       N1075   1.354       .  A
C754        C826   1.478       .  S
N755        N756   1.319       .  A
N755       Mn785   2.189       .  S
N756        C764   1.352       .  A
N757        N758   1.318       .  A
N757       Mn763   2.190       .  S
N758        C765   1.353       .  A
N759        N760   1.321       .  A
N759       Mn785   2.201       .  S
N761        N762   1.320       .  A
N761       Mn763   2.198       .  S
C764        C887   1.487       .  S
C765        C903   1.475       .  S
N766        N767   1.319       .  A
N766       Mn774   2.196       .  S
N768        N769   1.320       .  A
N768       Mn786   2.192       .  S
N770        N771   1.318       .  A
N770       Mn774   2.184       .  S
N771        C776   1.351   1_565  A
N772        N773   1.318       .  A
N772       Mn786   2.188       .  S
N773        C775   1.354       .  A
C775        C871   1.480       .  S
C776        C858   1.480       .  S
N777        N778   1.314       .  A
N777       N1110   1.314   1_554  A
N777       Mn785   2.177       .  S
N778       C1115   1.348   1_554  A
N779        N780   1.317       .  A
N779       N1108   1.314       .  A
N779       Mn786   2.189       .  S
N780        C789   1.351       .  A
N781       N1106   1.314   1_554  A
N781        N782   1.317       .  A
N781       Mn785   2.195       .  S
N782       C1116   1.354   1_554  A
N783       N1104   1.313       .  A
N783        N784   1.318       .  A
N783       Mn786   2.188       .  S
N784        C788   1.353       .  A
Mn785     Cl1114   2.536   1_554  S
Mn786      Cl787   2.544       .  S
Cl787     Mn1112   2.538       .  S
C788       N1105   1.352       .  A
C788        C810   1.484       .  S
C789       N1109   1.356       .  A
C789        C842   1.485       .  S
C790        C791   1.407       .  A
C790        C795   1.410       .  A
C790        H797   1.085       .  S
C791        C792   1.421       .  A
C792        C793   1.398       .  A
C792        C799   1.510       .  S
C793        C794   1.401       .  A
C793        H798   1.084       .  S
C794        C795   1.418       .  A
C795        C796   1.508       .  S
C796        H800   1.111       .  S
C796        H801   1.111       .  S
C796       H1129   1.109       .  S
C799        H803   1.108       .  S
C799       H1131   1.110       .  S
C799        H805   1.111       .  S
H802       C1123   1.110       .  S
H804       C1126   1.110       .  S
C806       C1134   1.402   1_554  A
C806        C811   1.399       .  A
C806        H813   1.085       .  S
C807       C1133   1.404       .  A
C807        C808   1.416       .  A
C808        C809   1.403       .  A
C808        C815   1.508       .  S
C809        C810   1.406       .  A
C809        H814   1.085       .  S
C810       C1138   1.417       .  A
C811       C1137   1.421   1_554  A
C811        C812   1.509       .  S
C812        H816   1.111       .  S
C812        H817   1.108       .  S
C812        H818   1.110       .  S
C815        H819   1.110       .  S
C815        H820   1.109       .  S
C815        H821   1.111       .  S
C822        C823   1.404       .  A
C822        C827   1.401       .  A
C822        H829   1.083       .  S
C823        C824   1.417       .  A
C824        C825   1.400       .  A
C824       C1158   1.509       .  S
C825        C826   1.403       .  A
C825        H830   1.083       .  S
C826        C827   1.416       .  A
C827        C828   1.509       .  S
C828        H832   1.111       .  S
C828       H1160   1.109       .  S
C828        H834   1.110       .  S
C831       C1151   1.509       .  S
C831        H835   1.110       .  S
C831       H1163   1.108       .  S
C831        H837   1.111       .  S
H833       C1155   1.110       .  S
H836       C1158   1.109       .  S
C838        C839   1.403       .  A
C838        C843   1.401       .  A
C838        H845   1.084       .  S
C839        C840   1.418       .  A
C840        C841   1.402       .  A
C840       C1174   1.507       .  S
C841        C842   1.404       .  A
C841        H846   1.085       .  S
C842        C843   1.419       .  A
C843        C844   1.509       .  S
C844        H848   1.111       .  S
C844        H849   1.110       .  S
C844       H1177   1.110       .  S
C847       C1167   1.509       .  S
C847       H1178   1.111       .  S
C847        H852   1.109       .  S
C847        H853   1.111       .  S
H850       C1171   1.110       .  S
H851       C1174   1.111       .  S
C854        C855   1.404   1_565  A
C854        C859   1.404       .  A
C854        H861   1.083       .  S
C856        C857   1.404       .  A
C856        C863   1.507       .  S
C857        H862   1.086       .  S
C858        C859   1.417   1_545  A
C859        C860   1.507       .  S
C860        H864   1.111       .  S
C860        H865   1.109       .  S
C863        H868   1.111       .  S
C863        H869   1.111       .  S
C870        C871   1.405       .  A
C870        C875   1.402       .  A
C870        H877   1.081       .  S
C872        C873   1.404       .  A
C872        C879   1.508       .  S
C873        C874   1.405       .  A
C873        H878   1.081       .  S
C875        C876   1.509       .  S
C876        H880   1.111       .  S
C876        H882   1.110       .  S
C879        H883   1.109       .  S
C879        H885   1.111       .  S
C886        C887   1.404       .  A
C886        C891   1.401       .  A
C887        C888   1.419       .  A
C888        C889   1.403       .  A
C888        C895   1.509       .  S
C889        C890   1.405       .  A
C889        H894   1.087       .  S
C890        C891   1.418       .  A
C892        H896   1.111       .  S
C892        H898   1.110       .  S
C895        H899   1.110       .  S
C895        H901   1.111       .  S
C902        C903   1.402       .  A
C902        C907   1.399       .  A
C902        H909   1.083       .  S
C904        C905   1.404       .  A
C904        C911   1.507       .  S
C905        C906   1.405       .  A
C905        H910   1.084       .  S
C907        C908   1.509       .  S
C908        H912   1.111       .  S
C908        H913   1.111       .  S
C908        H914   1.110       .  S
C911        H915   1.109       .  S
C911        H916   1.111       .  S
C911        H917   1.111       .  S
C918        C919   1.406       .  A
C918       C2231   1.408       .  A
C918        H925   1.082       .  S
C919        C920   1.421       .  A
C920       C2229   1.406       .  A
C920        C927   1.508       .  S
C921       C2228   1.406       .  A
C921        C922   1.406       .  A
C921        H926   1.082       .  S
C922        C923   1.419   1_655  A
C923       C2226   1.408       .  A
C923        C924   1.509       .  S
C924       H2236   1.111       .  S
C924       H2237   1.111       .  S
C924        H930   1.109       .  S
C927        H931   1.108       .  S
C927       H2240   1.110       .  S
C927       H2241   1.111       .  S
H928       C2232   1.111       .  S
H929       C2232   1.111       .  S
H932       C2235   1.110       .  S
H933       C2235   1.111       .  S
C934       C2243   1.402       .  A
C934        C939   1.399       .  A
C934        H941   1.084       .  S
C935       C2242   1.403       .  A
C935        C936   1.415       .  A
C936        C937   1.405       .  A
C936        C943   1.508       .  S
C937        C938   1.405       .  A
C937        H942   1.083       .  S
C938       C2247   1.416       .  A
C939       C2246   1.418       .  A
C939        C940   1.509       .  S
C940        H944   1.111       .  S
C940        H945   1.110       .  S
C940        H946   1.110       .  S
C943        H947   1.111       .  S
C943        H948   1.109       .  S
C943        H949   1.111       .  S
C950        C951   1.405   1_455  A
C950        C955   1.405       .  A
C950        H957   1.084       .  S
C951       C2260   1.420       .  A
C952       C2259   1.419       .  A
C952        C953   1.408       .  A
C952        C959   1.508       .  S
C953        C954   1.407       .  A
C953        H958   1.083       .  S
C954       C2263   1.419       .  A
C955       C2262   1.419   1_455  A
C955        C956   1.507       .  S
C956        H960   1.111       .  S
C956        H961   1.110       .  S
C956        H962   1.109       .  S
C959        H963   1.110       .  S
C959        H964   1.110       .  S
C959        H965   1.111       .  S
C966        C967   1.402   1_455  A
C966        C971   1.398       .  A
C966        H973   1.086       .  S
C967       C2276   1.415       .  A
C968       C2275   1.416       .  A
C968        C969   1.403       .  A
C968        C975   1.508       .  S
C969       C2278   1.405       .  A
C969        H974   1.087       .  S
C970       C2277   1.404   1_455  A
C970        C971   1.417       .  A
C971        C972   1.509       .  S
C972        H976   1.111       .  S
C972        H977   1.110       .  S
C972        H978   1.109       .  S
C975        H979   1.109       .  S
C975        H980   1.110       .  S
C975        H981   1.111       .  S
N982        N983   1.318       .  A
N982      Mn1011   2.196       .  S
N984        N985   1.318       .  A
N984      Mn1000   2.193       .  S
N986        N987   1.316       .  A
N986      Mn1011   2.197       .  S
N987        C991   1.354   1_565  A
N988        N989   1.319       .  A
N988      Mn1000   2.200       .  S
N989        C990   1.355       .  A
C990       C1217   1.489       .  S
C991       C1201   1.484       .  S
N992       N2306   1.314       .  A
N992        N993   1.316       .  A
N992      Mn1022   2.191       .  S
N993       C1001   1.351       .  A
N994        N995   1.317       .  A
N994       N2304   1.313   1_455  A
N994      Mn1000   2.193       .  S
N995       C1002   1.354   1_455  A
N996       N2302   1.313       .  A
N996        N997   1.321       .  A
N996      Mn1022   2.194       .  S
N997       C2310   1.354       .  A
N998       N2300   1.314   1_455  A
N998        N999   1.323       .  A
N998      Mn1000   2.212       .  S
N999       C2309   1.359   1_455  A
Mn1000    Cl1024   2.541   1_455  S
C1001      N2307   1.358       .  A
C1001      C1246   1.492       .  S
C1002      N2305   1.353       .  A
C1002      C1294   1.485       .  S
N1003      N1004   1.319       .  A
N1003      N2317   1.313   1_455  A
N1003     Mn1011   2.199       .  S
N1004      C2320   1.355   1_455  A
N1005      N2315   1.314       .  A
N1005      N1006   1.318       .  A
N1005     Mn1023   2.191       .  S
N1006      C2321   1.351       .  A
N1007      N2313   1.314   1_455  A
N1007      N1008   1.322       .  A
N1007     Mn1011   2.205       .  S
N1008      C1013   1.357   1_455  A
N1009      N2311   1.315       .  A
N1009      N1010   1.323       .  A
N1009     Mn1023   2.205       .  S
N1010      C1012   1.356       .  A
C1012      N2312   1.350       .  A
C1012      C1265   1.482       .  S
C1013      N2314   1.350       .  A
C1013      C1278   1.487       .  S
N1014      N1015   1.318       .  A
N1014     Mn1022   2.190       .  S
N1015      C1025   1.354       .  A
N1016      N1017   1.317       .  A
N1016     Mn1023   2.189       .  S
N1017      C1026   1.354   1_565  A
N1018      N1019   1.318       .  A
N1018     Mn1022   2.193       .  S
N1020      N1021   1.319       .  A
N1020     Mn1023   2.199       .  S
Mn1022    Cl2332   2.537       .  S
Mn1023    Cl1678   2.547   1_565  S
Cl1024    Mn2330   2.539       .  S
Cl1024    Mn1677   2.541       .  S
C1025      C1233   1.482       .  S
C1026      C1182   1.479       .  S
N1027      N1028   1.322       .  A
N1027      N2341   1.313       .  A
N1027     Mn1056   2.202       .  S
N1028      C2343   1.357       .  A
N1029      N2339   1.314   1_455  A
N1029      N1030   1.319       .  A
N1029     Mn1045   2.195       .  S
N1030      C2344   1.352       .  A
N1031      N2337   1.313       .  A
N1031      N1032   1.320       .  A
N1031     Mn1056   2.196       .  S
N1032      C1036   1.355       .  A
N1033      N2335   1.313   1_455  A
N1033      N1034   1.315       .  A
N1033     Mn1045   2.182       .  S
N1034      C1035   1.349   1_455  A
C1035      N2336   1.357       .  A
C1035      C1297   1.486       .  S
C1036      N2338   1.353       .  A
C1036      C1281   1.489       .  S
N1037      N1038   1.319       .  A
N1037     Mn1067   2.196       .  S
N1038      C1046   1.355       .  A
N1039      N1040   1.319       .  A
N1039     Mn1045   2.193       .  S
N1041      N1042   1.318       .  A
N1041     Mn1067   2.181       .  S
N1042      C1047   1.353       .  A
N1043      N1044   1.317       .  A
N1043     Mn1045   2.183       .  S
Mn1045    Cl2050   2.536   1_455  S
C1046      C1150   1.480       .  S
C1047      C1166   1.475       .  S
N1048      N1049   1.321       .  A
N1048     Mn1056   2.197       .  S
N1050      N1051   1.317       .  A
N1050     Mn1068   2.186       .  S
N1051      C1058   1.351       .  A
N1052      N1053   1.315       .  A
N1052     Mn1056   2.184       .  S
N1054      N1055   1.320       .  A
N1054     Mn1068   2.203       .  S
N1055      C1057   1.357       .  A
C1057      C1121   1.484       .  S
C1058      C1134   1.482       .  S
N1059      N1060   1.320       .  A
N1059      N2373   1.313   1_455  A
N1059     Mn1067   2.197       .  S
N1060      C1070   1.353   1_455  A
N1061      N1062   1.320       .  A
N1061      N2371   1.314       .  A
N1061     Mn1068   2.189       .  S
N1062      C1071   1.352       .  A
N1063      N2369   1.313   1_455  A
N1063      N1064   1.316       .  A
N1063     Mn1067   2.184       .  S
N1064      C2379   1.352   1_455  A
N1065      N2367   1.314       .  A
N1065      N1066   1.321       .  A
N1065     Mn1068   2.215       .  S
N1066      C2378   1.358       .  A
Mn1067    Cl2377   2.541   1_455  S
Mn1068    Cl1069   2.541       .  S
Cl1069    Mn2026   2.535   1_556  S
Cl1069    Mn2375   2.544       .  S
C1070      N2374   1.357       .  A
C1070      C1249   1.495   1_655  S
C1071      N2372   1.354       .  A
C1071      C1262   1.478       .  S
N1072      N1073   1.317       .  A
N1072     Mn1101   2.186       .  S
N1073      C1080   1.351       .  A
N1074      N1075   1.319       .  A
N1074     Mn1090   2.196       .  S
N1076      N1077   1.319       .  A
N1076     Mn1101   2.188       .  S
N1077      C1081   1.352       .  A
N1078      N1079   1.325       .  A
N1078     Mn1090   2.213       .  S
C1080      C1118   1.486       .  S
C1081      C1153   1.482       .  S
N1082      N1083   1.317       .  A
N1082     Mn1112   2.188       .  S
N1083      C1091   1.351       .  A
N1084      N1085   1.320       .  A
N1084     Mn1090   2.198       .  S
N1085      C1092   1.354   1_565  A
N1086      N1087   1.319       .  A
N1086     Mn1112   2.200       .  S
N1088      N1089   1.322       .  A
N1088     Mn1090   2.213       .  S
C1091      C1214   1.489       .  S
C1092      C1230   1.479       .  S
N1093      N1094   1.314       .  A
N1093     Mn1101   2.183       .  S
N1095      N1096   1.319       .  A
N1095     Mn1113   2.190       .  S
N1097      N1098   1.315       .  A
N1097     Mn1101   2.184       .  S
N1098      C1103   1.350   1_565  A
N1099      N1100   1.321       .  A
N1099     Mn1113   2.209       .  S
N1100      C1102   1.356       .  A
C1102      C1198   1.484       .  S
C1103      C1185   1.480       .  S
N1104      N1105   1.317       .  A
N1104     Mn1112   2.189       .  S
N1106      N1107   1.317       .  A
N1106     Mn1113   2.180       .  S
N1107      C1116   1.350       .  A
N1108      N1109   1.320       .  A
N1108     Mn1112   2.199       .  S
N1110      N1111   1.321       .  A
N1110     Mn1113   2.207       .  S
N1111      C1115   1.357       .  A
Mn1113    Cl1114   2.546       .  S
C1115      C1137   1.484       .  S
C1116      C1169   1.476       .  S
C1117      C1118   1.403   1_554  A
C1117      C1122   1.401       .  A
C1117      H1124   1.084       .  S
C1118      C1119   1.419       .  A
C1119      C1120   1.400       .  A
C1119      C1126   1.506       .  S
C1120      C1121   1.402       .  A
C1120      H1125   1.084       .  S
C1121      C1122   1.420   1_556  A
C1122      C1123   1.510       .  S
C1123      H1127   1.111       .  S
C1123      H1128   1.110       .  S
C1126      H1130   1.108       .  S
C1126      H1132   1.111       .  S
C1133      C1138   1.398       .  A
C1133      H1140   1.085       .  S
C1134      C1135   1.418       .  A
C1135      C1136   1.403       .  A
C1135      C1142   1.509       .  S
C1136      C1137   1.403       .  A
C1136      H1141   1.085       .  S
C1138      C1139   1.508       .  S
C1139      H1143   1.111       .  S
C1139      H1144   1.106       .  S
C1139      H1145   1.110       .  S
C1142      H1146   1.110       .  S
C1142      H1147   1.110       .  S
C1142      H1148   1.111       .  S
C1149      C1150   1.403       .  A
C1149      C1154   1.401       .  A
C1149      H1156   1.085       .  S
C1150      C1151   1.418   1_556  A
C1151      C1152   1.398       .  A
C1152      C1153   1.402   1_554  A
C1152      H1157   1.085       .  S
C1153      C1154   1.417       .  A
C1154      C1155   1.504       .  S
C1155      H1159   1.111       .  S
C1155      H1161   1.110       .  S
C1158      H1162   1.111       .  S
C1158      H1164   1.111       .  S
C1165      C1166   1.404       .  A
C1165      C1170   1.400       .  A
C1165      H1172   1.083       .  S
C1166      C1167   1.416   1_556  A
C1167      C1168   1.398       .  A
C1168      C1169   1.402   1_554  A
C1168      H1173   1.083       .  S
C1169      C1170   1.417       .  A
C1170      C1171   1.509       .  S
C1171      H1175   1.111       .  S
C1171      H1176   1.110       .  S
C1174      H1179   1.109       .  S
C1174      H1180   1.111       .  S
C1181      C1182   1.402   1_565  A
C1181      C1186   1.396       .  A
C1181      H1188   1.084       .  S
C1183      C1184   1.401       .  A
C1183      C1190   1.507       .  S
C1184      H1189   1.084       .  S
C1185      C1186   1.418   1_545  A
C1186      C1187   1.508       .  S
C1187      H1191   1.111       .  S
C1187      H1192   1.110       .  S
C1190      H1195   1.110       .  S
C1190      H1196   1.111       .  S
C1197      C1198   1.404       .  A
C1197      C1202   1.403       .  A
C1197      H1204   1.085       .  S
C1199      C1200   1.396       .  A
C1199      C1206   1.508       .  S
C1200      C1201   1.401   1_565  A
C1200      H1205   1.081       .  S
C1202      C1203   1.509       .  S
C1203      H1207   1.111       .  S
C1203      H1209   1.109       .  S
C1206      H1210   1.105       .  S
C1206      H1212   1.111       .  S
C1213      C1214   1.406       .  A
C1213      C1218   1.405       .  A
C1214      C1215   1.419       .  A
C1215      C1216   1.402       .  A
C1215      C1222   1.509       .  S
C1216      C1217   1.405       .  A
C1216      H1221   1.083       .  S
C1217      C1218   1.418       .  A
C1219      H1223   1.111       .  S
C1219      H1225   1.109       .  S
C1222      H1226   1.110       .  S
C1222      H1228   1.111       .  S
C1229      C1230   1.405   1_565  A
C1229      C1234   1.403       .  A
C1229      H1236   1.082       .  S
C1231      C1232   1.402       .  A
C1231      C1238   1.506       .  S
C1232      C1233   1.404       .  A
C1232      H1237   1.084       .  S
C1234      C1235   1.508       .  S
C1235      H1239   1.111       .  S
C1235      H1240   1.108       .  S
C1235      H1241   1.111       .  S
C1238      H1242   1.109       .  S
C1238      H1243   1.110       .  S
C1238      H1244   1.111       .  S
C1245      C1246   1.405       .  A
C1245      C2558   1.408       .  A
C1245      H1252   1.085       .  S
C1246      C1247   1.421       .  A
C1247      C2556   1.402       .  A
C1247      C1254   1.509       .  S
C1248      C2555   1.405       .  A
C1248      C1249   1.405   1_655  A
C1248      H1253   1.082       .  S
C1249      C1250   1.421       .  A
C1250      C2553   1.407       .  A
C1250      C1251   1.508       .  S
C1251      H2563   1.111       .  S
C1251      H2564   1.111       .  S
C1251      H1257   1.110       .  S
C1254      H1258   1.108       .  S
C1254      H2567   1.110       .  S
C1254      H2568   1.111       .  S
H1255      C2559   1.111       .  S
H1256      C2559   1.110       .  S
H1259      C2562   1.110       .  S
H1260      C2562   1.111       .  S
C1261      C2570   1.406   1_455  A
C1261      C1266   1.400       .  A
C1261      H1268   1.083       .  S
C1262      C2569   1.400       .  A
C1262      C1263   1.416       .  A
C1263      C1264   1.407       .  A
C1263      C1270   1.508       .  S
C1264      C1265   1.405       .  A
C1264      H1269   1.085       .  S
C1265      C2574   1.418       .  A
C1266      C2573   1.416   1_455  A
C1266      C1267   1.509       .  S
C1267      H1271   1.111       .  S
C1267      H1272   1.110       .  S
C1267      H1273   1.110       .  S
C1270      H1274   1.111       .  S
C1270      H1275   1.109       .  S
C1270      H1276   1.111       .  S
C1277      C1278   1.404   1_455  A
C1277      C1282   1.405       .  A
C1277      H1284   1.084       .  S
C1278      C2587   1.420       .  A
C1279      C2586   1.420       .  A
C1279      C1280   1.404       .  A
C1279      C1286   1.508       .  S
C1280      C1281   1.405       .  A
C1280      H1285   1.082       .  S
C1281      C2590   1.418       .  A
C1282      C2589   1.418       .  A
C1282      C1283   1.508       .  S
C1283      H1287   1.111       .  S
C1283      H1288   1.110       .  S
C1283      H1289   1.109       .  S
C1286      H1290   1.109       .  S
C1286      H1291   1.110       .  S
C1286      H1292   1.111       .  S
C1293      C1294   1.403   1_455  A
C1293      C1298   1.399       .  A
C1293      H1300   1.084       .  S
C1294      C2603   1.417       .  A
C1295      C2602   1.417       .  A
C1295      C1296   1.407       .  A
C1295      C1302   1.508       .  S
C1296      C2605   1.407       .  A
C1296      H1301   1.084       .  S
C1297      C2604   1.405       .  A
C1297      C1298   1.420   1_655  A
C1298      C1299   1.509       .  S
C1299      H1303   1.111       .  S
C1299      H1304   1.110       .  S
C1299      H1305   1.107       .  S
C1302      H1306   1.110       .  S
C1302      H1307   1.110       .  S
C1302      H1308   1.111       .  S
N1309      N1310   1.316       .  A
N1309      N1969   1.313       .  A
N1309     Mn1338   2.182       .  S
N1310      C1971   1.349       .  A
N1311      N1967   1.314   1_545  A
N1311      N1312   1.318       .  A
N1311     Mn1327   2.187       .  S
N1312      C1972   1.351   1_545  A
N1313      N1965   1.314       .  A
N1313      N1314   1.315       .  A
N1313     Mn1338   2.187       .  S
N1314      C1318   1.352       .  A
N1315      N1963   1.315   1_545  A
N1315      N1316   1.320       .  A
N1315     Mn1327   2.205       .  S
N1316      C1317   1.356   1_545  A
C1317      N1964   1.353       .  A
C1317      C1544   1.490       .  S
C1318      N1966   1.352       .  A
C1318      C1528   1.480       .  S
N1319      N1320   1.318       .  A
N1319     Mn1349   2.197       .  S
N1320      C1328   1.352       .  A
N1321      N1322   1.317       .  A
N1321     Mn1327   2.194       .  S
N1322      C1329   1.353       .  A
N1323      N1324   1.321       .  A
N1323     Mn1349   2.204       .  S
N1325      N1326   1.321       .  A
N1325     Mn1327   2.205       .  S
Mn1327    Cl1351   2.545   1_545  S
C1328      C1573   1.497       .  S
C1329      C1621   1.478       .  S
N1330      N1331   1.319       .  A
N1330     Mn1338   2.192       .  S
N1332      N1333   1.316       .  A
N1332     Mn1350   2.188       .  S
N1334      N1335   1.319       .  A
N1334     Mn1338   2.194       .  S
N1335      C1340   1.354       .  A
N1336      N1337   1.319       .  A
N1336     Mn1350   2.198       .  S
N1337      C1339   1.355       .  A
Mn1338    Cl2005   2.537       .  S
C1339      C1592   1.489       .  S
C1340      C1605   1.484       .  S
N1341      N1342   1.317       .  A
N1341      N2001   1.314   1_545  A
N1341     Mn1349   2.188       .  S
N1342      C1352   1.352   1_545  A
N1343      N1344   1.318       .  A
N1343      N1999   1.313       .  A
N1343     Mn1350   2.186       .  S
N1344      C1353   1.353       .  A
N1345      N1997   1.315   1_545  A
N1345      N1346   1.319       .  A
N1345     Mn1349   2.200       .  S
N1346      C2007   1.353   1_545  A
N1347      N1995   1.314       .  A
N1347      N1348   1.317       .  A
N1347     Mn1350   2.191       .  S
N1348      C2006   1.351       .  A
Cl1351    Mn1992   2.539       .  S
C1352      N2002   1.351       .  A
C1352      C1560   1.478       .  S
C1353      N2000   1.349       .  A
C1353      C1509   1.476       .  S
N1354      N1355   1.319       .  A
N1354     Mn1383   2.189       .  S
N1356      N1357   1.319       .  A
N1356     Mn1372   2.193       .  S
N1358      N1359   1.321       .  A
N1358     Mn1383   2.212       .  S
N1359      C1363   1.358       .  A
N1360      N1361   1.318       .  A
N1360     Mn1372   2.195       .  S
N1361      C1362   1.353       .  A
C1362      C1624   1.479       .  S
C1363      C1608   1.489       .  S
N1364      N1697   1.314       .  A
N1364      N1365   1.317       .  A
N1364     Mn1394   2.185       .  S
N1365      C1373   1.352       .  A
N1366      N1367   1.317       .  A
N1366      N1695   1.313   1_554  A
N1366     Mn1372   2.195       .  S
N1367      C1701   1.352       .  A
N1368      N1693   1.314       .  A
N1368      N1369   1.321       .  A
N1368     Mn1394   2.204       .  S
N1369      C1374   1.356       .  A
N1370      N1691   1.314   1_554  A
N1370      N1371   1.318       .  A
N1370     Mn1372   2.190       .  S
N1371      C1700   1.351       .  A
C1373      N1698   1.352       .  A
C1373      C1477   1.478       .  S
C1374      N1694   1.349       .  A
C1374      C1493   1.481       .  S
N1375      N1376   1.318       .  A
N1375      N1708   1.314   1_554  A
N1375     Mn1383   2.190       .  S
N1376      C1711   1.352       .  A
N1377      N1706   1.315       .  A
N1377      N1378   1.319       .  A
N1377     Mn1395   2.191       .  S
N1378      C1385   1.352       .  A
N1379      N1704   1.313   1_554  A
N1379      N1380   1.318       .  A
N1379     Mn1383   2.200       .  S
N1380      C1712   1.355   1_554  A
N1381      N1702   1.314       .  A
N1381      N1382   1.319       .  A
N1381     Mn1395   2.202       .  S
N1382      C1384   1.355       .  A
Mn1383    Cl1723   2.547       .  S
C1384      N1703   1.351       .  A
C1384      C1448   1.479       .  S
C1385      N1707   1.356       .  A
C1385      C1461   1.488       .  S
N1386      N1387   1.318       .  A
N1386     Mn1394   2.186       .  S
N1387      C1397   1.351       .  A
N1388      N1389   1.318       .  A
N1388     Mn1395   2.191       .  S
N1389      C1398   1.351       .  A
N1390      N1391   1.322       .  A
N1390     Mn1394   2.207       .  S
N1392      N1393   1.320       .  A
N1392     Mn1395   2.206       .  S
Mn1395    Cl1396   2.536       .  S
Cl1396    Mn1710   2.549       .  S
C1397      C1576   1.490       .  S
C1398      C1589   1.490       .  S
N1399      N1400   1.315       .  A
N1399      N1732   1.313       .  A
N1399     Mn1428   2.181       .  S
N1400      C1407   1.349       .  A
N1401      N1730   1.313   1_554  A
N1401      N1402   1.319       .  A
N1401     Mn1417   2.189       .  S
N1402      C1735   1.354       .  A
N1403      N1728   1.313       .  A
N1403      N1404   1.316       .  A
N1403     Mn1428   2.177       .  S
N1404      C1408   1.349       .  A
N1405      N1726   1.313   1_554  A
N1405      N1406   1.322       .  A
N1405     Mn1417   2.212       .  S
N1406      C1734   1.358   1_554  A
C1407      N1733   1.356       .  A
C1407      C1445   1.481       .  S
C1408      N1729   1.355       .  A
C1408      C1480   1.476       .  S
N1409      N2069   1.314   1_545  A
N1409      N1410   1.318       .  A
N1409     Mn1439   2.193       .  S
N1410      C1418   1.352       .  A
N1411      N1412   1.316       .  A
N1411      N2067   1.314       .  A
N1411     Mn1417   2.186       .  S
N1412      C1419   1.352       .  A
N1413      N2065   1.314   1_545  A
N1413      N1414   1.317       .  A
N1413     Mn1439   2.189       .  S
N1414      C2073   1.351   1_545  A
N1415      N2063   1.314       .  A
N1415      N1416   1.320       .  A
N1415     Mn1417   2.207       .  S
N1416      C2072   1.357       .  A
Mn1417    Cl2422   2.544   1_554  S
C1418      N2070   1.357   1_545  A
C1418      C1541   1.491       .  S
C1419      N2068   1.355       .  A
C1419      C1557   1.484       .  S
N1420      N1421   1.315       .  A
N1420      N2080   1.312       .  A
N1420     Mn1428   2.182       .  S
N1421      C2083   1.351       .  A
N1422      N2078   1.314   1_545  A
N1422      N1423   1.317       .  A
N1422     Mn1440   2.188       .  S
N1423      C2084   1.352   1_545  A
N1424      N2076   1.312       .  A
N1424      N1425   1.315       .  A
N1424     Mn1428   2.174       .  S
N1425      C1430   1.349       .  A
N1426      N2074   1.315   1_545  A
N1426      N1427   1.319       .  A
N1426     Mn1440   2.198       .  S
N1427      C1429   1.354   1_545  A
Mn1428    Cl2095   2.527       .  S
C1429      N2075   1.352       .  A
C1429      C1525   1.482       .  S
C1430      N2077   1.354       .  A
C1430      C1512   1.475       .  S
N1431      N1432   1.317       .  A
N1431      N1764   1.314   1_554  A
N1431     Mn1439   2.193       .  S
N1432      C1769   1.352       .  A
N1433      N1434   1.319       .  A
N1433      N1762   1.313       .  A
N1433     Mn1440   2.188       .  S
N1434      C1443   1.352       .  A
N1435      N1760   1.313   1_554  A
N1435      N1436   1.316       .  A
N1435     Mn1439   2.192       .  S
N1436      C1770   1.354   1_554  A
N1437      N1758   1.313       .  A
N1437      N1438   1.323       .  A
N1437     Mn1440   2.207       .  S
N1438      C1442   1.358       .  A
Mn1439    Cl1768   2.528   1_554  S
Mn1440    Cl1441   2.548   1_545  S
Cl1441    Mn2398   2.551       .  S
Cl1441    Mn2082   2.533       .  S
Cl1441    Mn1766   2.530   1_565  S
C1442      N1759   1.349       .  A
C1442      C1464   1.489       .  S
C1443      N1763   1.354       .  A
C1443      C1496   1.481       .  S
C1444      C1445   1.404       .  A
C1444      C1449   1.405       .  A
C1444      H1451   1.086       .  S
C1445      C1446   1.418       .  A
C1446      C1447   1.399       .  A
C1446      C1453   1.509       .  S
C1447      C1448   1.400       .  A
C1447      H1452   1.085       .  S
C1448      C1449   1.417       .  A
C1449      C1450   1.509       .  S
C1450      H1454   1.111       .  S
C1450      H1455   1.111       .  S
C1450      H1783   1.109       .  S
C1453      H1457   1.110       .  S
C1453      H1785   1.111       .  S
C1453      H1459   1.111       .  S
H1456      C1777   1.110       .  S
H1458      C1780   1.110       .  S
C1460      C1788   1.402   1_554  A
C1460      C1465   1.399       .  A
C1460      H1467   1.086       .  S
C1461      C1787   1.402       .  A
C1461      C1462   1.420       .  A
C1462      C1463   1.406       .  A
C1462      C1469   1.508       .  S
C1463      C1464   1.405       .  A
C1463      H1468   1.085       .  S
C1464      C1792   1.421       .  A
C1465      C1791   1.419       .  A
C1465      C1466   1.507       .  S
C1466      H1470   1.111       .  S
C1466      H1471   1.105       .  S
C1466      H1472   1.110       .  S
C1469      H1473   1.110       .  S
C1469      H1474   1.110       .  S
C1469      H1475   1.111       .  S
C1476      C1477   1.403       .  A
C1476      C1481   1.399       .  A
C1476      H1483   1.084       .  S
C1477      C1478   1.415       .  A
C1478      C1479   1.400       .  A
C1478      C1812   1.505       .  S
C1479      C1480   1.402       .  A
C1479      H1484   1.085       .  S
C1480      C1481   1.417       .  A
C1481      C1482   1.509       .  S
C1482      H1486   1.111       .  S
C1482      H1814   1.110       .  S
C1482      H1488   1.109       .  S
C1485      C1805   1.507       .  S
C1485      H1489   1.109       .  S
C1485      H1817   1.109       .  S
C1485      H1491   1.111       .  S
H1487      C1809   1.109       .  S
H1490      C1812   1.111       .  S
C1492      C1493   1.404       .  A
C1492      C1497   1.404       .  A
C1492      H1499   1.083       .  S
C1493      C1494   1.418       .  A
C1494      C1495   1.398       .  A
C1494      C1828   1.510       .  S
C1495      C1496   1.402       .  A
C1495      H1500   1.083       .  S
C1496      C1497   1.417       .  A
C1497      C1498   1.509       .  S
C1498      H1502   1.111       .  S
C1498      H1503   1.111       .  S
C1498      H1831   1.109       .  S
C1501      C1821   1.507       .  S
C1501      H1832   1.107       .  S
C1501      H1506   1.110       .  S
C1501      H1507   1.111       .  S
H1504      C1825   1.110       .  S
H1505      C1828   1.109       .  S
C1508      C1509   1.403       .  A
C1508      C1513   1.399       .  A
C1508      H1515   1.085       .  S
C1509      C2164   1.417       .  A
C1510      C2163   1.412   1_545  A
C1510      C1511   1.398       .  A
C1510      C1517   1.504       .  S
C1511      C2166   1.401   1_545  A
C1511      H1516   1.084       .  S
C1512      C2165   1.402       .  A
C1512      C1513   1.417       .  A
C1513      C1514   1.510       .  S
C1514      H1518   1.111       .  S
C1514      H1519   1.110       .  S
C1514      H2174   1.110       .  S
C1517      H2175   1.108       .  S
C1517      H1522   1.111       .  S
C1517      H1523   1.111       .  S
H1520      C2168   1.109       .  S
H1521      C2171   1.110       .  S
C1524      C1525   1.405   1_545  A
C1524      C1529   1.403       .  A
C1524      H1531   1.082       .  S
C1525      C2180   1.417       .  A
C1526      C2179   1.417       .  A
C1526      C1527   1.397       .  A
C1526      C1533   1.510       .  S
C1527      C1528   1.404       .  A
C1527      H1532   1.081       .  S
C1528      C2183   1.416       .  A
C1529      C2182   1.418   1_545  A
C1529      C1530   1.509       .  S
C1530      H1534   1.111       .  S
C1530      H2189   1.111       .  S
C1530      H1536   1.110       .  S
C1533      H1537   1.109       .  S
C1533      H2192   1.110       .  S
C1533      H1539   1.111       .  S
H1535      C2184   1.110       .  S
H1538      C2187   1.111       .  S
C1540      C1541   1.405   1_565  A
C1540      C1545   1.406       .  A
C1540      H2201   1.086       .  S
C1541      C1542   1.420       .  A
C1542      C1543   1.403       .  A
C1542      C1549   1.509       .  S
C1543      C1544   1.404   1_545  A
C1543      H1548   1.086       .  S
C1544      C1545   1.419       .  A
C1545      C2200   1.509       .  S
C1546      C2199   1.510       .  S
C1546      H1550   1.111       .  S
C1546      H2205   1.110       .  S
C1546      H1552   1.109       .  S
H1547      C2194   1.085       .  S
C1549      H1553   1.110       .  S
C1549      H2208   1.110       .  S
C1549      H1555   1.111       .  S
H1551      C2200   1.110       .  S
H1554      C2203   1.109       .  S
C1556      C1557   1.404       .  A
C1556      C1561   1.399       .  A
C1556      H1563   1.081       .  S
C1557      C2212   1.416       .  A
C1558      C2211   1.416   1_545  A
C1558      C1559   1.398       .  A
C1558      C1565   1.506       .  S
C1559      C1560   1.403   1_545  A
C1559      H1564   1.083       .  S
C1560      C2215   1.416       .  A
C1561      C2214   1.417       .  A
C1561      C1562   1.509       .  S
C1562      H1566   1.111       .  S
C1562      H1567   1.110       .  S
C1562      H1568   1.109       .  S
C1565      H1569   1.110       .  S
C1565      H1570   1.110       .  S
C1565      H1571   1.111       .  S
C1572      C1573   1.407   1_455  A
C1572      H1579   1.083       .  S
C1573      C1574   1.421       .  A
C1574      C1581   1.506       .  S
C1575      C1576   1.403       .  A
C1575      H1580   1.083       .  S
C1576      C1577   1.420       .  A
C1577      C1578   1.509       .  S
C1578      H1584   1.110       .  S
C1581      H1585   1.107       .  S
C1588      C1593   1.407       .  A
C1588      H1595   1.083       .  S
C1589      C1590   1.420       .  A
C1590      C1591   1.403       .  A
C1590      C1597   1.509       .  S
C1591      C1592   1.405       .  A
C1591      H1596   1.083       .  S
C1593      C1594   1.509       .  S
C1594      H1598   1.111       .  S
C1594      H1599   1.110       .  S
C1594      H1600   1.110       .  S
C1597      H1601   1.111       .  S
C1597      H1602   1.110       .  S
C1597      H1603   1.111       .  S
C1604      C1605   1.404       .  A
C1604      C1609   1.402       .  A
C1604      H1611   1.086       .  S
C1606      C1607   1.401       .  A
C1606      C1613   1.508       .  S
C1607      C1608   1.401       .  A
C1607      H1612   1.084       .  S
C1609      C1610   1.508       .  S
C1610      H1614   1.111       .  S
C1610      H1615   1.107       .  S
C1610      H1616   1.110       .  S
C1613      H1617   1.109       .  S
C1613      H1618   1.110       .  S
C1613      H1619   1.111       .  S
C1620      C1621   1.402       .  A
C1620      C1625   1.399       .  A
C1620      H1627   1.086       .  S
C1622      C1623   1.405       .  A
C1622      C1629   1.508       .  S
C1623      H1628   1.085       .  S
C1624      C1625   1.415       .  A
C1625      C1626   1.506       .  S
C1626      H1630   1.111       .  S
C1626      H1631   1.109       .  S
C1626      H1632   1.110       .  S
C1629      H1633   1.110       .  S
C1629      H1634   1.110       .  S
C1629      H1635   1.111       .  S
N1636      N1637   1.319       .  A
N1636      N2296   1.314       .  A
N1636     Mn1665   2.195       .  S
N1637      C2298   1.353       .  A
N1638      N2294   1.313   1_545  A
N1638      N1639   1.318       .  A
N1638     Mn1654   2.181       .  S
N1639      C2299   1.351       .  A
N1640      N2292   1.314       .  A
N1640      N1641   1.316       .  A
N1640     Mn1665   2.185       .  S
N1641      C1645   1.352       .  A
N1642      N2290   1.316   1_545  A
N1642      N1643   1.320       .  A
N1642     Mn1654   2.211       .  S
N1643      C1644   1.356       .  A
C1644      N2291   1.353   1_545  A
C1644      C1871   1.489       .  S
C1645      N2293   1.351       .  A
C1645      C1855   1.477       .  S
N1646      N1647   1.318       .  A
N1646     Mn1676   2.193       .  S
N1647      C1655   1.352       .  A
N1648      N1649   1.320       .  A
N1648     Mn1654   2.194       .  S
N1649      C1656   1.356       .  A
N1650      N1651   1.320       .  A
N1650     Mn1676   2.190       .  S
N1652      N1653   1.324       .  A
N1652     Mn1654   2.220       .  S
Mn1654    Cl1678   2.551       .  S
C1655      C1900   1.483       .  S
C1656      C1948   1.485       .  S
N1657      N1658   1.320       .  A
N1657     Mn1665   2.198       .  S
N1659      N1660   1.318       .  A
N1659     Mn1677   2.184       .  S
N1661      N1662   1.316       .  A
N1661     Mn1665   2.189       .  S
N1662      C1667   1.353       .  A
N1663      N1664   1.319       .  A
N1663     Mn1677   2.200       .  S
N1664      C1666   1.356       .  A
Mn1665    Cl2332   2.537       .  S
C1666      C1919   1.490       .  S
C1667      C1932   1.483       .  S
N1668      N1669   1.316       .  A
N1668      N2328   1.314   1_545  A
N1668     Mn1676   2.189       .  S
N1669      C1679   1.353       .  A
N1670      N1671   1.317       .  A
N1670      N2326   1.314       .  A
N1670     Mn1677   2.186       .  S
N1671      C1680   1.353       .  A
N1672      N2324   1.312   1_545  A
N1672      N1673   1.316       .  A
N1672     Mn1676   2.178       .  S
N1673      C2334   1.350       .  A
N1674      N2322   1.314       .  A
N1674      N1675   1.317       .  A
N1674     Mn1677   2.188       .  S
N1675      C2333   1.351       .  A
Cl1678    Mn2319   2.534   1_545  S
C1679      N2329   1.352   1_545  A
C1679      C1887   1.480       .  S
C1680      N2327   1.349       .  A
C1680      C1836   1.476       .  S
N1681      N1682   1.320       .  A
N1681     Mn1710   2.193       .  S
N1683      N1684   1.316       .  A
N1683     Mn1699   2.185       .  S
N1685      N1686   1.321       .  A
N1685     Mn1710   2.205       .  S
N1686      C1690   1.357       .  A
N1687      N1688   1.318       .  A
N1687     Mn1699   2.192       .  S
N1688      C1689   1.352       .  A
C1689      C1951   1.486       .  S
C1690      C1935   1.485       .  S
N1691      N1692   1.319       .  A
N1691     Mn1721   2.200       .  S
N1692      C1700   1.355   1_556  A
N1693      N1694   1.315       .  A
N1693     Mn1699   2.180       .  S
N1695      N1696   1.320       .  A
N1695     Mn1721   2.193       .  S
N1696      C1701   1.354   1_556  A
N1697      N1698   1.318       .  A
N1697     Mn1699   2.192       .  S
C1700      C1804   1.486       .  S
C1701      C1820   1.487       .  S
N1702      N1703   1.319       .  A
N1702     Mn1710   2.185       .  S
N1704      N1705   1.319       .  A
N1704     Mn1722   2.188       .  S
N1705      C1712   1.352       .  A
N1706      N1707   1.318       .  A
N1706     Mn1710   2.204       .  S
N1708      N1709   1.318       .  A
N1708     Mn1722   2.197       .  S
N1709      C1711   1.355   1_556  A
C1711      C1775   1.485       .  S
C1712      C1788   1.486       .  S
N1713      N1714   1.320       .  A
N1713     Mn1721   2.197       .  S
N1714      C1724   1.352       .  A
N1715      N1716   1.317       .  A
N1715     Mn1722   2.191       .  S
N1716      C1725   1.351       .  A
N1717      N1718   1.319       .  A
N1717     Mn1721   2.196       .  S
N1719      N1720   1.317       .  A
N1719     Mn1722   2.193       .  S
Mn1722    Cl1723   2.534   1_556  S
C1724      C1903   1.489       .  S
C1725      C1916   1.491       .  S
N1726      N1727   1.316       .  A
N1726     Mn1755   2.181       .  S
N1727      C1734   1.350       .  A
N1728      N1729   1.318       .  A
N1728     Mn1744   2.193       .  S
N1730      N1731   1.318       .  A
N1730     Mn1755   2.195       .  S
N1731      C1735   1.352   1_556  A
N1732      N1733   1.322       .  A
N1732     Mn1744   2.205       .  S
C1734      C1772   1.489       .  S
C1735      C1807   1.484       .  S
N1736      N2396   1.314   1_545  A
N1736      N1737   1.319       .  A
N1736     Mn1766   2.193       .  S
N1737      C1745   1.352       .  A
N1738      N1739   1.317       .  A
N1738      N2394   1.314       .  A
N1738     Mn1744   2.186       .  S
N1739      C1746   1.351       .  A
N1740      N2392   1.313   1_545  A
N1740      N1741   1.317       .  A
N1740     Mn1766   2.189       .  S
N1741      C2400   1.351       .  A
N1742      N2390   1.314       .  A
N1742      N1743   1.320       .  A
N1742     Mn1744   2.204       .  S
N1743      C2399   1.356       .  A
Mn1744    Cl2095   2.544       .  S
C1745      N2397   1.356   1_545  A
C1745      C1868   1.488       .  S
C1746      N2395   1.355       .  A
C1746      C1884   1.480       .  S
N1747      N1748   1.315       .  A
N1747      N2407   1.313       .  A
N1747     Mn1755   2.176       .  S
N1748      C2410   1.349       .  A
N1749      N2405   1.313   1_545  A
N1749      N1750   1.318       .  A
N1749     Mn1767   2.191       .  S
N1750      C2411   1.355   1_545  A
N1751      N2403   1.313       .  A
N1751      N1752   1.318       .  A
N1751     Mn1755   2.193       .  S
N1752      C1757   1.353       .  A
N1753      N2401   1.313   1_545  A
N1753      N1754   1.320       .  A
N1753     Mn1767   2.194       .  S
N1754      C1756   1.355       .  A
Mn1755    Cl2422   2.534       .  S
C1756      N2402   1.349   1_545  A
C1756      C1852   1.478       .  S
C1757      N2404   1.351       .  A
C1757      C1839   1.478       .  S
N1758      N1759   1.315       .  A
N1758     Mn1766   2.183       .  S
N1760      N1761   1.320       .  A
N1760     Mn1767   2.189       .  S
N1761      C1770   1.353       .  A
N1762      N1763   1.317       .  A
N1762     Mn1766   2.191       .  S
N1764      N1765   1.320       .  A
N1764     Mn1767   2.198       .  S
N1765      C1769   1.356   1_556  A
Mn1767    Cl1768   2.553       .  S
Cl1768    Mn2071   2.550   1_546  S
Cl1768    Mn2409   2.526   1_545  S
C1769      C1791   1.488       .  S
C1770      C1823   1.485       .  S
C1771      C1772   1.405   1_554  A
C1771      C1776   1.405       .  A
C1771      H1778   1.083       .  S
C1772      C1773   1.420       .  A
C1773      C1774   1.400       .  A
C1773      C1780   1.507       .  S
C1774      C1775   1.402   1_556  A
C1774      H1779   1.083       .  S
C1775      C1776   1.418       .  A
C1776      C1777   1.508       .  S
C1777      H1781   1.111       .  S
C1777      H1782   1.111       .  S
C1780      H1784   1.105       .  S
C1780      H1786   1.111       .  S
C1787      C1792   1.399       .  A
C1787      H1794   1.085       .  S
C1788      C1789   1.419       .  A
C1789      C1790   1.404       .  A
C1789      C1796   1.509       .  S
C1790      C1791   1.405   1_556  A
C1790      H1795   1.087       .  S
C1792      C1793   1.509       .  S
C1793      H1797   1.111       .  S
C1793      H1798   1.110       .  S
C1793      H1799   1.110       .  S
C1796      H1800   1.110       .  S
C1796      H1801   1.109       .  S
C1796      H1802   1.111       .  S
C1803      C1804   1.404   1_556  A
C1803      C1808   1.401       .  A
C1803      H1810   1.084       .  S
C1804      C1805   1.419       .  A
C1805      C1806   1.402       .  A
C1806      C1807   1.404       .  A
C1806      H1811   1.084       .  S
C1807      C1808   1.417   1_554  A
C1808      C1809   1.508       .  S
C1809      H1813   1.111       .  S
C1809      H1815   1.111       .  S
C1812      H1816   1.109       .  S
C1812      H1818   1.111       .  S
C1819      C1820   1.407   1_556  A
C1819      C1824   1.406       .  A
C1819      H1826   1.082       .  S
C1820      C1821   1.418       .  A
C1821      C1822   1.398       .  A
C1822      C1823   1.403   1_554  A
C1822      H1827   1.082       .  S
C1823      C1824   1.418       .  A
C1824      C1825   1.508       .  S
C1825      H1829   1.111       .  S
C1825      H1830   1.110       .  S
C1828      H1833   1.110       .  S
C1828      H1834   1.111       .  S
C1835      C1836   1.402       .  A
C1835      C1840   1.399       .  A
C1835      H1842   1.084       .  S
C1836      C2491   1.417       .  A
C1837      C2490   1.417       .  A
C1837      C1838   1.400       .  A
C1837      C1844   1.509       .  S
C1838      C2493   1.404   1_545  A
C1838      H1843   1.083       .  S
C1839      C2492   1.404       .  A
C1839      C1840   1.415       .  A
C1840      C1841   1.504       .  S
C1841      H1845   1.111       .  S
C1841      H1846   1.110       .  S
C1841      H2501   1.110       .  S
C1844      H2502   1.109       .  S
C1844      H1849   1.111       .  S
C1844      H1850   1.111       .  S
H1847      C2495   1.108       .  S
H1848      C2498   1.110       .  S
C1851      C1852   1.404       .  A
C1851      C1856   1.403       .  A
C1851      H1858   1.082       .  S
C1852      C2507   1.417   1_545  A
C1853      C2506   1.417       .  A
C1853      C1854   1.398       .  A
C1853      C1860   1.509       .  S
C1854      C1855   1.403       .  A
C1854      H1859   1.082       .  S
C1855      C2510   1.416       .  A
C1856      C2509   1.416       .  A
C1856      C1857   1.509       .  S
C1857      H1861   1.111       .  S
C1857      H2516   1.111       .  S
C1857      H1863   1.109       .  S
C1860      H1864   1.108       .  S
C1860      H2519   1.110       .  S
C1860      H1866   1.111       .  S
H1862      C2511   1.111       .  S
H1865      C2514   1.110       .  S
C1867      C1868   1.405   1_565  A
C1867      C1872   1.405       .  A
C1867      H2528   1.084       .  S
C1868      C1869   1.419       .  A
C1869      C1870   1.404       .  A
C1869      C1876   1.509       .  S
C1870      C1871   1.405       .  A
C1870      H1875   1.084       .  S
C1871      C1872   1.419   1_545  A
C1872      C2527   1.509       .  S
C1873      C2526   1.509       .  S
C1873      H1877   1.111       .  S
C1873      H2532   1.110       .  S
C1873      H1879   1.110       .  S
H1874      C2521   1.085       .  S
C1876      H1880   1.110       .  S
C1876      H2535   1.110       .  S
C1876      H1882   1.111       .  S
H1878      C2527   1.110       .  S
H1881      C2530   1.110       .  S
C1883      C1884   1.404       .  A
C1883      C1888   1.400       .  A
C1883      H1890   1.083       .  S
C1884      C2539   1.414       .  A
C1885      C2538   1.417       .  A
C1885      C1886   1.397       .  A
C1885      C1892   1.509       .  S
C1886      C1887   1.403       .  A
C1886      H1891   1.083       .  S
C1887      C2542   1.417   1_545  A
C1888      C2541   1.417       .  A
C1888      C1889   1.509       .  S
C1889      H1893   1.111       .  S
C1889      H1894   1.110       .  S
C1889      H1895   1.109       .  S
C1892      H1896   1.110       .  S
C1892      H1897   1.108       .  S
C1892      H1898   1.111       .  S
C1899      C1900   1.405   1_455  A
C1899      H1906   1.082       .  S
C1900      C1901   1.416       .  A
C1901      C1908   1.509       .  S
C1902      C1903   1.402       .  A
C1902      H1907   1.082       .  S
C1903      C1904   1.419       .  A
C1904      C1905   1.509       .  S
C1905      H1911   1.109       .  S
C1908      H1912   1.109       .  S
C1915      C1920   1.403       .  A
C1915      H1922   1.085       .  S
C1916      C1917   1.420       .  A
C1917      C1918   1.403       .  A
C1917      C1924   1.509       .  S
C1918      C1919   1.404       .  A
C1918      H1923   1.085       .  S
C1920      C1921   1.508       .  S
C1921      H1925   1.111       .  S
C1921      H1926   1.110       .  S
C1921      H1927   1.110       .  S
C1924      H1928   1.110       .  S
C1924      H1929   1.110       .  S
C1924      H1930   1.111       .  S
C1931      C1932   1.402       .  A
C1931      C1936   1.398       .  A
C1931      H1938   1.084       .  S
C1933      C1934   1.404       .  A
C1933      C1940   1.508       .  S
C1934      C1935   1.404       .  A
C1934      H1939   1.081       .  S
C1936      C1937   1.507       .  S
C1937      H1941   1.111       .  S
C1937      H1942   1.106       .  S
C1937      H1943   1.110       .  S
C1940      H1944   1.110       .  S
C1940      H1945   1.110       .  S
C1940      H1946   1.111       .  S
C1947      C1948   1.405       .  A
C1947      C1952   1.403       .  A
C1947      H1954   1.084       .  S
C1949      C1950   1.405       .  A
C1949      C1956   1.508       .  S
C1950      H1955   1.086       .  S
C1951      C1952   1.418       .  A
C1952      C1953   1.508       .  S
C1953      H1957   1.111       .  S
C1953      H1958   1.110       .  S
C1953      H1959   1.110       .  S
C1956      H1960   1.110       .  S
C1956      H1961   1.110       .  S
C1956      H1962   1.111       .  S
N1963      N1964   1.319       .  A
N1963     Mn1992   2.198       .  S
N1965      N1966   1.319       .  A
N1965     Mn1981   2.187       .  S
N1967      N1968   1.318       .  A
N1967     Mn1992   2.197       .  S
N1968      C1972   1.354       .  A
N1969      N1970   1.323       .  A
N1969     Mn1981   2.214       .  S
N1970      C1971   1.358       .  A
C1971      C2198   1.490       .  S
C1972      C2182   1.482       .  S
N1973      N1974   1.321       .  A
N1973     Mn2003   2.208       .  S
N1974      C1982   1.355       .  A
N1975      N1976   1.315       .  A
N1975     Mn1981   2.183       .  S
N1976      C1983   1.352       .  A
N1977      N1978   1.319       .  A
N1977     Mn2003   2.183       .  S
N1979      N1980   1.323       .  A
N1979     Mn1981   2.218       .  S
Mn1981    Cl2005   2.545       .  S
C1982      C2227   1.496       .  S
C1983      C2275   1.482       .  S
N1984      N1985   1.319       .  A
N1984     Mn1992   2.201       .  S
N1986      N1987   1.320       .  A
N1986     Mn2004   2.196       .  S
N1988      N1989   1.320       .  A
N1988     Mn1992   2.201       .  S
N1989      C1994   1.355       .  A
N1990      N1991   1.320       .  A
N1990     Mn2004   2.196       .  S
N1991      C1993   1.355   1_655  A
C1993      C2246   1.480       .  S
C1994      C2259   1.497       .  S
N1995      N1996   1.320       .  A
N1995     Mn2003   2.199       .  S
N1996      C2006   1.355       .  A
N1997      N1998   1.317       .  A
N1997     Mn2004   2.183       .  S
N1998      C2007   1.350       .  A
N1999      N2000   1.315       .  A
N1999     Mn2003   2.177       .  S
N2001      N2002   1.317       .  A
N2001     Mn2004   2.188       .  S
C2006      C2214   1.483       .  S
C2007      C2163   1.473       .  S
N2008      N2009   1.319       .  A
N2008     Mn2037   2.192       .  S
N2010      N2011   1.321       .  A
N2010     Mn2026   2.206       .  S
N2012      N2013   1.321       .  A
N2012     Mn2037   2.206       .  S
N2013      C2017   1.357       .  A
N2014      N2015   1.316       .  A
N2014     Mn2026   2.185       .  S
N2015      C2016   1.351       .  A
C2016      C2278   1.483       .  S
C2017      C2262   1.493       .  S
N2018      N2351   1.314       .  A
N2018      N2019   1.318       .  A
N2018     Mn2048   2.203       .  S
N2019      C2027   1.355       .  A
N2020      N2021   1.318       .  A
N2020      N2349   1.314   1_554  A
N2020     Mn2026   2.197       .  S
N2021      C2355   1.352   1_554  A
N2022      N2347   1.313       .  A
N2022      N2023   1.319       .  A
N2022     Mn2048   2.192       .  S
N2023      C2028   1.354       .  A
N2024      N2345   1.314   1_554  A
N2024      N2025   1.314       .  A
N2024     Mn2026   2.175       .  S
N2025      C2354   1.348   1_554  A
C2027      N2352   1.351       .  A
C2027      C2131   1.481       .  S
C2028      N2348   1.352       .  A
C2028      C2147   1.484       .  S
N2029      N2030   1.318       .  A
N2029      N2362   1.315   1_554  A
N2029     Mn2037   2.187       .  S
N2030      C2365   1.351   1_554  A
N2031      N2360   1.314       .  A
N2031      N2032   1.317       .  A
N2031     Mn2049   2.180       .  S
N2032      C2039   1.350       .  A
N2033      N2358   1.314   1_554  A
N2033      N2034   1.317       .  A
N2033     Mn2037   2.194       .  S
N2034      C2366   1.354   1_554  A
N2035      N2356   1.315       .  A
N2035      N2036   1.318       .  A
N2035     Mn2049   2.196       .  S
N2036      C2038   1.353       .  A
Mn2037    Cl2377   2.540   1_554  S
C2038      N2357   1.354       .  A
C2038      C2102   1.488       .  S
C2039      N2361   1.355       .  A
C2039      C2115   1.481       .  S
N2040      N2041   1.320       .  A
N2040     Mn2048   2.201       .  S
N2041      C2051   1.353       .  A
N2042      N2043   1.318       .  A
N2042     Mn2049   2.184       .  S
N2043      C2052   1.351   1_655  A
N2044      N2045   1.319       .  A
N2044     Mn2048   2.198       .  S
N2046      N2047   1.321       .  A
N2046     Mn2049   2.206       .  S
Mn2049    Cl2050   2.539       .  S
Cl2050    Mn2364   2.546       .  S
C2051      C2230   1.496       .  S
C2052      C2243   1.478       .  S
N2053      N2054   1.316       .  A
N2053      N2386   1.314       .  A
N2053     Mn2082   2.186       .  S
N2054      C2061   1.350       .  A
N2055      N2384   1.314   1_554  A
N2055      N2056   1.316       .  A
N2055     Mn2071   2.183       .  S
N2056      C2389   1.351   1_554  A
N2057      N2382   1.313       .  A
N2057      N2058   1.317       .  A
N2057     Mn2082   2.192       .  S
N2058      C2062   1.351       .  A
N2059      N2380   1.314   1_554  A
N2059      N2060   1.323       .  A
N2059     Mn2071   2.211       .  S
N2060      C2388   1.358   1_554  A
C2061      N2387   1.358       .  A
C2061      C2099   1.489       .  S
C2062      N2383   1.354       .  A
C2062      C2134   1.480       .  S
N2063      N2064   1.318       .  A
N2063     Mn2093   2.186       .  S
N2064      C2072   1.351       .  A
N2065      N2066   1.317       .  A
N2065     Mn2071   2.187       .  S
N2066      C2073   1.353       .  A
N2067      N2068   1.322       .  A
N2067     Mn2093   2.205       .  S
N2069      N2070   1.322       .  A
N2069     Mn2071   2.208       .  S
C2072      C2195   1.489       .  S
C2073      C2211   1.479       .  S
N2074      N2075   1.318       .  A
N2074     Mn2082   2.190       .  S
N2076      N2077   1.317       .  A
N2076     Mn2094   2.187       .  S
N2078      N2079   1.318       .  A
N2078     Mn2082   2.185       .  S
N2079      C2084   1.350       .  A
N2080      N2081   1.319       .  A
N2080     Mn2094   2.187       .  S
N2081      C2083   1.354       .  A
C2083      C2179   1.481       .  S
C2084      C2166   1.471       .  S
N2085      N2086   1.313       .  A
N2085      N2418   1.313   1_554  A
N2085     Mn2093   2.176       .  S
N2086      C2423   1.348   1_554  A
N2087      N2088   1.316       .  A
N2087      N2416   1.314       .  A
N2087     Mn2094   2.179       .  S
N2088      C2097   1.349       .  A
N2089      N2414   1.313   1_554  A
N2089      N2090   1.320       .  A
N2089     Mn2093   2.207       .  S
N2090      C2424   1.357   1_554  A
N2091      N2412   1.313       .  A
N2091      N2092   1.318       .  A
N2091     Mn2094   2.186       .  S
N2092      C2096   1.354       .  A
Mn2093    Cl2422   2.537   1_554  S
Mn2094    Cl2095   2.544       .  S
Cl2095    Mn2420   2.535       .  S
C2096      N2413   1.351       .  A
C2096      C2118   1.483       .  S
C2097      N2417   1.356       .  A
C2097      C2150   1.482       .  S
C2098      C2099   1.405       .  A
C2098      C2103   1.404       .  A
C2098      H2105   1.086       .  S
C2099      C2100   1.421       .  A
C2100      C2101   1.402       .  A
C2100      C2107   1.510       .  S
C2101      C2102   1.404       .  A
C2101      H2106   1.086       .  S
C2102      C2103   1.417       .  A
C2103      C2104   1.508       .  S
C2104      H2108   1.111       .  S
C2104      H2109   1.111       .  S
C2104      H2437   1.109       .  S
C2107      H2111   1.111       .  S
C2107      H2439   1.110       .  S
C2107      H2113   1.111       .  S
H2110      C2431   1.109       .  S
H2112      C2434   1.110       .  S
C2114      C2442   1.401   1_554  A
C2114      C2119   1.396       .  A
C2114      H2121   1.085       .  S
C2115      C2441   1.402       .  A
C2115      C2116   1.418       .  A
C2116      C2117   1.402       .  A
C2116      C2123   1.509       .  S
C2117      C2118   1.405       .  A
C2117      H2122   1.086       .  S
C2118      C2446   1.418       .  A
C2119      C2445   1.420   1_554  A
C2119      C2120   1.510       .  S
C2120      H2124   1.111       .  S
C2120      H2125   1.107       .  S
C2120      H2126   1.110       .  S
C2123      H2127   1.110       .  S
C2123      H2128   1.110       .  S
C2123      H2129   1.111       .  S
C2130      C2131   1.403       .  A
C2130      C2135   1.399       .  A
C2130      H2137   1.084       .  S
C2131      C2132   1.418       .  A
C2132      C2133   1.403       .  A
C2132      C2466   1.508       .  S
C2133      C2134   1.405       .  A
C2133      H2138   1.084       .  S
C2134      C2135   1.416       .  A
C2135      C2136   1.509       .  S
C2136      H2140   1.111       .  S
C2136      H2468   1.109       .  S
C2136      H2142   1.111       .  S
C2139      C2459   1.510       .  S
C2139      H2143   1.111       .  S
C2139      H2471   1.109       .  S
C2139      H2145   1.111       .  S
H2141      C2463   1.108       .  S
H2144      C2466   1.108       .  S
C2146      C2147   1.404       .  A
C2146      C2151   1.402       .  A
C2146      H2153   1.083       .  S
C2147      C2148   1.417       .  A
C2148      C2149   1.399       .  A
C2148      C2482   1.505       .  S
C2149      C2150   1.402       .  A
C2149      H2154   1.083       .  S
C2150      C2151   1.419       .  A
C2151      C2152   1.509       .  S
C2152      H2156   1.111       .  S
C2152      H2157   1.111       .  S
C2152      H2485   1.110       .  S
C2155      C2475   1.507       .  S
C2155      H2486   1.110       .  S
C2155      H2160   1.110       .  S
C2155      H2161   1.111       .  S
H2158      C2479   1.110       .  S
H2159      C2482   1.110       .  S
C2162      C2163   1.404       .  A
C2162      C2167   1.401       .  A
C2162      H2169   1.085       .  S
C2164      C2165   1.397       .  A
C2164      C2171   1.509       .  S
C2165      H2170   1.085       .  S
C2166      C2167   1.414       .  A
C2167      C2168   1.508       .  S
C2168      H2172   1.111       .  S
C2168      H2173   1.111       .  S
C2171      H2176   1.109       .  S
C2171      H2177   1.111       .  S
C2178      C2179   1.406       .  A
C2178      C2183   1.403       .  A
C2178      H2185   1.081       .  S
C2180      C2181   1.400       .  A
C2180      C2187   1.509       .  S
C2181      C2182   1.404       .  A
C2181      H2186   1.081       .  S
C2183      C2184   1.509       .  S
C2184      H2188   1.111       .  S
C2184      H2190   1.110       .  S
C2187      H2191   1.110       .  S
C2187      H2193   1.111       .  S
C2194      C2195   1.403       .  A
C2194      C2199   1.402       .  A
C2195      C2196   1.420       .  A
C2196      C2197   1.405       .  A
C2196      C2203   1.509       .  S
C2197      C2198   1.404       .  A
C2197      H2202   1.085       .  S
C2198      C2199   1.421       .  A
C2200      H2204   1.111       .  S
C2200      H2206   1.109       .  S
C2203      H2207   1.111       .  S
C2203      H2209   1.111       .  S
C2210      C2211   1.404       .  A
C2210      C2215   1.400       .  A
C2210      H2217   1.083       .  S
C2212      C2213   1.405       .  A
C2212      C2219   1.506       .  S
C2213      C2214   1.406       .  A
C2213      H2218   1.081       .  S
C2215      C2216   1.508       .  S
C2216      H2220   1.111       .  S
C2216      H2221   1.110       .  S
C2216      H2222   1.109       .  S
C2219      H2223   1.109       .  S
C2219      H2224   1.111       .  S
C2219      H2225   1.111       .  S
C2226      C2227   1.407   1_455  A
C2226      H2233   1.082       .  S
C2227      C2228   1.420       .  A
C2228      C2235   1.508       .  S
C2229      C2230   1.405       .  A
C2229      H2234   1.082       .  S
C2230      C2231   1.421       .  A
C2231      C2232   1.509       .  S
C2232      H2238   1.110       .  S
C2235      H2239   1.109       .  S
C2242      C2247   1.402       .  A
C2242      H2249   1.083       .  S
C2243      C2244   1.416   1_455  A
C2244      C2245   1.403       .  A
C2244      C2251   1.509       .  S
C2245      C2246   1.404   1_655  A
C2245      H2250   1.085       .  S
C2247      C2248   1.508       .  S
C2248      H2252   1.111       .  S
C2248      H2253   1.110       .  S
C2248      H2254   1.111       .  S
C2251      H2255   1.111       .  S
C2251      H2256   1.109       .  S
C2251      H2257   1.111       .  S
C2258      C2259   1.407       .  A
C2258      C2263   1.406       .  A
C2258      H2265   1.083       .  S
C2260      C2261   1.406       .  A
C2260      C2267   1.508       .  S
C2261      C2262   1.405       .  A
C2261      H2266   1.084       .  S
C2263      C2264   1.509       .  S
C2264      H2268   1.111       .  S
C2264      H2269   1.111       .  S
C2264      H2270   1.109       .  S
C2267      H2271   1.110       .  S
C2267      H2272   1.110       .  S
C2267      H2273   1.111       .  S
C2274      C2275   1.403       .  A
C2274      C2279   1.397       .  A
C2274      H2281   1.087       .  S
C2276      C2277   1.402       .  A
C2276      C2283   1.509       .  S
C2277      H2282   1.086       .  S
C2278      C2279   1.418       .  A
C2279      C2280   1.509       .  S
C2280      H2284   1.111       .  S
C2280      H2285   1.110       .  S
C2280      H2286   1.107       .  S
C2283      H2287   1.109       .  S
C2283      H2288   1.111       .  S
C2283      H2289   1.111       .  S
N2290      N2291   1.319       .  A
N2290     Mn2319   2.198       .  S
N2292      N2293   1.317       .  A
N2292     Mn2308   2.186       .  S
N2294      N2295   1.317       .  A
N2294     Mn2319   2.193       .  S
N2295      C2299   1.353   1_565  A
N2296      N2297   1.321       .  A
N2296     Mn2308   2.205       .  S
N2297      C2298   1.356       .  A
C2298      C2525   1.492       .  S
C2299      C2509   1.478       .  S
N2300      N2301   1.318       .  A
N2300     Mn2330   2.195       .  S
N2301      C2309   1.352       .  A
N2302      N2303   1.315       .  A
N2302     Mn2308   2.187       .  S
N2303      C2310   1.353       .  A
N2304      N2305   1.320       .  A
N2304     Mn2330   2.192       .  S
N2306      N2307   1.323       .  A
N2306     Mn2308   2.211       .  S
Mn2308    Cl2332   2.544       .  S
C2309      C2554   1.495       .  S
C2310      C2602   1.484       .  S
N2311      N2312   1.315       .  A
N2311     Mn2319   2.192       .  S
N2313      N2314   1.317       .  A
N2313     Mn2331   2.188       .  S
N2315      N2316   1.321       .  A
N2315     Mn2319   2.205       .  S
N2316      C2321   1.357       .  A
N2317      N2318   1.317       .  A
N2317     Mn2331   2.185       .  S
N2318      C2320   1.352       .  A
C2320      C2573   1.486       .  S
C2321      C2586   1.490       .  S
N2322      N2323   1.319       .  A
N2322     Mn2330   2.193       .  S
N2323      C2333   1.354       .  A
N2324      N2325   1.317       .  A
N2324     Mn2331   2.187       .  S
N2325      C2334   1.354   1_565  A
N2326      N2327   1.316       .  A
N2326     Mn2330   2.182       .  S
N2328      N2329   1.319       .  A
N2328     Mn2331   2.189       .  S
C2333      C2541   1.479       .  S
C2334      C2490   1.478       .  S
N2335      N2336   1.322       .  A
N2335     Mn2364   2.208       .  S
N2337      N2338   1.319       .  A
N2337     Mn2353   2.196       .  S
N2339      N2340   1.320       .  A
N2339     Mn2364   2.204       .  S
N2340      C2344   1.356   1_655  A
N2341      N2342   1.315       .  A
N2341     Mn2353   2.184       .  S
N2342      C2343   1.350       .  A
C2343      C2605   1.487       .  S
C2344      C2589   1.486       .  S
N2345      N2346   1.319       .  A
N2345     Mn2375   2.187       .  S
N2346      C2354   1.352       .  A
N2347      N2348   1.317       .  A
N2347     Mn2353   2.191       .  S
N2349      N2350   1.321       .  A
N2349     Mn2375   2.200       .  S
N2350      C2355   1.356       .  A
N2351      N2352   1.318       .  A
N2351     Mn2353   2.183       .  S
C2354      C2458   1.465       .  S
C2355      C2474   1.489       .  S
N2356      N2357   1.320       .  A
N2356     Mn2364   2.204       .  S
N2358      N2359   1.319       .  A
N2358     Mn2376   2.187       .  S
N2359      C2366   1.351       .  A
N2360      N2361   1.317       .  A
N2360     Mn2364   2.197       .  S
N2362      N2363   1.319       .  A
N2362     Mn2376   2.205       .  S
N2363      C2365   1.356       .  A
C2365      C2429   1.485       .  S
C2366      C2442   1.479       .  S
N2367      N2368   1.319       .  A
N2367     Mn2375   2.190       .  S
N2368      C2378   1.352       .  A
N2369      N2370   1.320       .  A
N2369     Mn2376   2.198       .  S
N2370      C2379   1.355       .  A
N2371      N2372   1.318       .  A
N2371     Mn2375   2.197       .  S
N2373      N2374   1.321       .  A
N2373     Mn2376   2.209       .  S
Mn2376    Cl2377   2.541       .  S
C2378      C2557   1.492       .  S
C2379      C2570   1.485       .  S
N2380      N2381   1.315       .  A
N2380     Mn2409   2.181       .  S
N2381      C2388   1.349       .  A
N2382      N2383   1.320       .  A
N2382     Mn2398   2.190       .  S
N2384      N2385   1.317       .  A
N2384     Mn2409   2.181       .  S
N2385      C2389   1.350       .  A
N2386      N2387   1.322       .  A
N2386     Mn2398   2.208       .  S
C2388      C2426   1.487       .  S
C2389      C2461   1.465       .  S
N2390      N2391   1.319       .  A
N2390     Mn2420   2.192       .  S
N2391      C2399   1.352       .  A
N2392      N2393   1.319       .  A
N2392     Mn2398   2.189       .  S
N2393      C2400   1.354   1_565  A
N2394      N2395   1.320       .  A
N2394     Mn2420   2.204       .  S
N2396      N2397   1.320       .  A
N2396     Mn2398   2.207       .  S
C2399      C2522   1.491       .  S
C2400      C2538   1.481       .  S
N2401      N2402   1.315       .  A
N2401     Mn2409   2.178       .  S
N2403      N2404   1.316       .  A
N2403     Mn2421   2.179       .  S
N2405      N2406   1.316       .  A
N2405     Mn2409   2.183       .  S
N2406      C2411   1.350       .  A
N2407      N2408   1.318       .  A
N2407     Mn2421   2.194       .  S
N2408      C2410   1.354       .  A
C2410      C2506   1.477       .  S
C2411      C2493   1.481       .  S
N2412      N2413   1.316       .  A
N2412     Mn2420   2.188       .  S
N2414      N2415   1.317       .  A
N2414     Mn2421   2.181       .  S
N2415      C2424   1.350       .  A
N2416      N2417   1.319       .  A
N2416     Mn2420   2.202       .  S
N2418      N2419   1.322       .  A
N2418     Mn2421   2.203       .  S
N2419      C2423   1.357       .  A
Mn2421    Cl2422   2.544       .  S
C2423      C2445   1.482       .  S
C2424      C2477   1.487       .  S
C2425      C2426   1.404   1_554  A
C2425      C2430   1.405       .  A
C2425      H2432   1.085       .  S
C2426      C2427   1.420       .  A
C2427      C2428   1.399       .  A
C2427      C2434   1.509       .  S
C2428      C2429   1.401       .  A
C2428      H2433   1.085       .  S
C2429      C2430   1.419   1_556  A
C2430      C2431   1.509       .  S
C2431      H2435   1.111       .  S
C2431      H2436   1.110       .  S
C2434      H2438   1.107       .  S
C2434      H2440   1.111       .  S
C2441      C2446   1.397       .  A
C2441      H2448   1.085       .  S
C2442      C2443   1.417       .  A
C2443      C2444   1.405       .  A
C2443      C2450   1.508       .  S
C2444      C2445   1.405       .  A
C2444      H2449   1.085       .  S
C2446      C2447   1.507       .  S
C2447      H2451   1.111       .  S
C2447      H2452   1.106       .  S
C2447      H2453   1.110       .  S
C2450      H2454   1.111       .  S
C2450      H2455   1.109       .  S
C2450      H2456   1.111       .  S
C2457      C2458   1.402       .  A
C2457      C2462   1.401       .  A
C2457      H2464   1.082       .  S
C2458      C2459   1.414   1_556  A
C2459      C2460   1.395       .  A
C2460      C2461   1.400   1_554  A
C2460      H2465   1.082       .  S
C2461      C2462   1.412       .  A
C2462      C2463   1.507       .  S
C2463      H2467   1.111       .  S
C2463      H2469   1.111       .  S
C2466      H2470   1.110       .  S
C2466      H2472   1.111       .  S
C2473      C2474   1.405       .  A
C2473      C2478   1.404       .  A
C2473      H2480   1.084       .  S
C2474      C2475   1.419   1_556  A
C2475      C2476   1.401       .  A
C2476      C2477   1.402   1_554  A
C2476      H2481   1.084       .  S
C2477      C2478   1.420       .  A
C2478      C2479   1.509       .  S
C2479      H2483   1.111       .  S
C2479      H2484   1.110       .  S
C2482      H2487   1.109       .  S
C2482      H2488   1.111       .  S
C2489      C2490   1.402   1_565  A
C2489      C2494   1.398       .  A
C2489      H2496   1.083       .  S
C2491      C2492   1.398       .  A
C2491      C2498   1.509       .  S
C2492      H2497   1.083       .  S
C2493      C2494   1.418       .  A
C2494      C2495   1.508       .  S
C2495      H2499   1.111       .  S
C2495      H2500   1.110       .  S
C2498      H2503   1.109       .  S
C2498      H2504   1.111       .  S
C2505      C2506   1.404       .  A
C2505      C2510   1.400       .  A
C2505      H2512   1.082       .  S
C2507      C2508   1.398       .  A
C2507      C2514   1.509       .  S
C2508      C2509   1.402   1_565  A
C2508      H2513   1.082       .  S
C2510      C2511   1.509       .  S
C2511      H2515   1.111       .  S
C2511      H2517   1.110       .  S
C2514      H2518   1.109       .  S
C2514      H2520   1.111       .  S
C2521      C2522   1.405       .  A
C2521      C2526   1.403       .  A
C2522      C2523   1.420       .  A
C2523      C2524   1.404       .  A
C2523      C2530   1.509       .  S
C2524      C2525   1.405       .  A
C2524      H2529   1.085       .  S
C2525      C2526   1.420       .  A
C2527      H2531   1.111       .  S
C2527      H2533   1.109       .  S
C2530      H2534   1.110       .  S
C2530      H2536   1.111       .  S
C2537      C2538   1.405   1_565  A
C2537      C2542   1.403       .  A
C2537      H2544   1.083       .  S
C2539      C2540   1.401       .  A
C2539      C2546   1.505       .  S
C2540      C2541   1.404       .  A
C2540      H2545   1.083       .  S
C2542      C2543   1.509       .  S
C2543      H2547   1.111       .  S
C2543      H2548   1.110       .  S
C2543      H2549   1.110       .  S
C2546      H2550   1.108       .  S
C2546      H2551   1.111       .  S
C2546      H2552   1.111       .  S
C2553      C2554   1.406   1_455  A
C2553      H2560   1.082       .  S
C2554      C2555   1.421       .  A
C2555      C2562   1.509       .  S
C2556      C2557   1.402       .  A
C2556      H2561   1.085       .  S
C2557      C2558   1.421       .  A
C2558      C2559   1.509       .  S
C2559      H2565   1.110       .  S
C2562      H2566   1.110       .  S
C2569      C2574   1.397       .  A
C2569      H2576   1.085       .  S
C2570      C2571   1.416       .  A
C2571      C2572   1.403       .  A
C2571      C2578   1.509       .  S
C2572      C2573   1.407       .  A
C2572      H2577   1.083       .  S
C2574      C2575   1.509       .  S
C2575      H2579   1.111       .  S
C2575      H2580   1.109       .  S
C2575      H2581   1.110       .  S
C2578      H2582   1.110       .  S
C2578      H2583   1.110       .  S
C2578      H2584   1.111       .  S
C2585      C2586   1.405       .  A
C2585      C2590   1.404       .  A
C2585      H2592   1.082       .  S
C2587      C2588   1.402       .  A
C2587      C2594   1.509       .  S
C2588      C2589   1.403   1_655  A
C2588      H2593   1.084       .  S
C2590      C2591   1.507       .  S
C2591      H2595   1.111       .  S
C2591      H2596   1.110       .  S
C2591      H2597   1.110       .  S
C2594      H2598   1.109       .  S
C2594      H2599   1.111       .  S
C2594      H2600   1.111       .  S
C2601      C2602   1.402       .  A
C2601      C2606   1.396       .  A
C2601      H2608   1.083       .  S
C2603      C2604   1.406       .  A
C2603      C2610   1.508       .  S
C2604      H2609   1.084       .  S
C2605      C2606   1.419       .  A
C2606      C2607   1.508       .  S
C2607      H2611   1.111       .  S
C2607      H2612   1.110       .  S
C2607      H2613   1.104       .  S
C2610      H2614   1.109       .  S
C2610      H2615   1.110       .  S
C2610      H2616   1.111       .  S
