geometry optimzed in LAMMPS
_audit_creation_date              2020-12-01 
_audit_creation_method            'lammps2cif' 
_symmetry_space_group_name_H-M    'P1' 
_symmetry_Int_Tables_number       1 
_symmetry_cell_setting            triclinic 
loop_ 
_symmetry_equiv_pos_as_xyz 
  x,y,z 
_cell_length_a                    44.84707123 
_cell_length_b                    44.877617723594135 
_cell_length_c                    44.90643153877965 
_cell_angle_alpha                 90.00169959275772 
_cell_angle_beta                  90.0768130772021 
_cell_angle_gamma                 90.10613980687401 
loop_ 
_atom_site_label 
_atom_site_type_symbol 
_atom_site_fract_x 
_atom_site_fract_y 
_atom_site_fract_z 
_atom_site_charge 
C1          C  0.00222740  0.08948010  0.17684178     0.42500
N2          N  0.48807535  0.06223061  0.21363517     0.01400
C3          C  0.07410171  0.46979496  0.30202358    -0.06400
H4          H  0.07434899  0.44313160  0.18830593     0.06900
C5          C  0.46401434  0.42301231  0.19530190    -0.06800
Co6        Co  0.03933107  0.03486614  0.24603961     0.74200
N7          N  0.05625509  0.47869361  0.21472503    -0.26000
Co8        Co  0.03167504  0.45805942  0.24822917     0.74100
C9          C  0.98962937  0.40941464  0.18042551     0.42600
N10         N  0.43408389  0.49053344  0.21617166     0.01100
N11         N  0.00505186  0.43655438  0.21675683     0.01200
N12         N  0.07846393  0.01989884  0.29984378    -0.46800
H13         H  0.05178764  0.07848289  0.18595233     0.06900
N14         N  0.05916025  0.00791482  0.21380856     0.01400
N15         N  0.00626010  0.43876546  0.28190073     0.01200
C16         C  0.49286653  0.41418732  0.32067764     0.42800
N17         N  0.43690345  0.01982779  0.21545352    -0.25400
C18         C  0.02990160  0.07701743  0.30058361    -0.06300
N19         N  0.47818791  0.08014959  0.19241859    -0.46500
N20         N  0.01658740  0.42251794  0.30418512    -0.46800
C21         C  0.50420775  0.09066266  0.31529943     0.42600
N22         N  0.06038721  0.00970505  0.27886379     0.01400
N23         N  0.43757799  0.02171937  0.28022854    -0.25400
N24         N  0.01733275  0.05941081  0.21331483    -0.25900
N25         N  0.43470912  0.49247042  0.28125398     0.01100
H26         H  0.41900324  0.05732128  0.30642220     0.07000
H27         H  0.44315398  0.42467129  0.31216761     0.07000
N28         N  0.05752268  0.48050826  0.27959922    -0.26000
N29         N  0.47581135  0.43939017  0.21733618    -0.25600
N30         N  0.48899345  0.06369571  0.27876361     0.01400
C31         C  0.08534750  0.99221732  0.17697758     0.42800
C32         C  0.42061307  0.03046973  0.19281128    -0.06900
N33         N  0.47699010  0.44152374  0.28244844    -0.25600
H34         H  0.44043780  0.42074815  0.19089992     0.07000
N35         N  0.07651146  0.01690941  0.19174689    -0.46800
H36         H  0.41827113  0.05372149  0.18695352     0.07000
C37         C  0.40780485  0.50826837  0.31742273     0.42700
C38         C  0.02835567  0.07574162  0.19081601    -0.06300
Co39       Co  0.46247994  0.04240081  0.24700136     0.73800
N40         N  0.41648805  0.48020906  0.19481559    -0.46500
C41         C  0.08797617  0.49610096  0.31555459     0.42900
N42         N  0.47967865  0.08145353  0.30038658    -0.46500
Co43       Co  0.45483409  0.46551118  0.24935157     0.73900
C44         C  0.46641097  0.42666938  0.30616807    -0.06900
C45         C  0.07202649  0.46673389  0.19238663    -0.06400
N46         N  0.01826009  0.06078925  0.27833673    -0.25900
N47         N  0.01424370  0.41871021  0.19516999    -0.46700
H48         H  0.07638374  0.44646008  0.30740180     0.06900
C49         C  0.42137413  0.03372809  0.30220331    -0.06800
Cl50       Cl  0.99707154  0.00021973  0.24764051    -0.49800
C51         C  0.40726732  0.00412506  0.17907406     0.42700
H52         H  0.05341944  0.07917506  0.30544595     0.06900
N53         N  0.41697840  0.48350248  0.30304664    -0.46500
C54         C  0.08772264  0.18352871  0.50284141     0.42500
N55         N  0.06106467  0.22024500  0.48764074     0.01400
C56         C  0.46587786  0.30570487  0.07346235    -0.06400
H57         H  0.44569058  0.19055113  0.07671228     0.06900
C58         C  0.42158860  0.19446133  0.46722640    -0.06800
Co59       Co  0.03330490  0.25283680  0.03863350     0.74200
N60         N  0.47940489  0.21887234  0.05771337    -0.26000
Co61       Co  0.45637747  0.25035746  0.03249655     0.74100
C62         C  0.40805536  0.18078495  0.49359513     0.42600
N63         N  0.48906633  0.21755301  0.43460516     0.01100
N64         N  0.43632103  0.21695488  0.00724087     0.01200
N65         N  0.01618965  0.30628341  0.07719135    -0.46800
H66         H  0.07689173  0.19444905  0.05204821     0.06900
N67         N  0.00870812  0.21966716  0.06012745     0.01400
N68         N  0.43417708  0.28181728  0.00649374     0.01200
C69         C  0.40545339  0.31700253  0.49152824     0.42800
N70         N  0.01832313  0.21889680  0.43703447    -0.25400
C71         C  0.07373686  0.30848236  0.02655400    -0.06300
N72         N  0.07838982  0.19828068  0.47825991    -0.46500
N73         N  0.41564100  0.30270550  0.01600101    -0.46800
C74         C  0.08673447  0.32225046  0.49996900     0.42600
N75         N  0.00684373  0.28473144  0.05933296     0.01400
N76         N  0.01603312  0.28399984  0.43709595    -0.25400
N77         N  0.05863145  0.22089811  0.01689017    -0.25900
N78         N  0.48673541  0.28295602  0.43468106     0.01100
H79         H  0.04912236  0.31459003  0.42046290     0.07000
H80         H  0.41586616  0.30666382  0.44223813     0.07000
N81         N  0.47753512  0.28377194  0.05693150    -0.26000
N82         N  0.43853675  0.21662238  0.47795727    -0.25600
N83         N  0.05941018  0.28525773  0.48685832     0.01400
C84         C  0.99544055  0.18294482  0.08783375     0.42800
C85         C  0.03041758  0.19710882  0.42068065    -0.06900
N86         N  0.43646707  0.28124206  0.47721666    -0.25600
H87         H  0.41832630  0.18983059  0.44385001     0.07000
N88         N  0.01922822  0.19859570  0.07794549    -0.46800
H89         H  0.05407916  0.19355789  0.41815512     0.07000
C90         C  0.49920643  0.32213870  0.41028982     0.42700
C91         C  0.07471738  0.19872933  0.02850345    -0.06300
Co92       Co  0.03924013  0.25207810  0.46167837     0.73800
N93         N  0.48016075  0.19560357  0.41692480    -0.46500
C94         C  0.49161819  0.32067145  0.08684815     0.42900
N95         N  0.07691963  0.30649435  0.47635751    -0.46500
Co96       Co  0.46231914  0.24946364  0.45553300     0.73900
C97         C  0.41912655  0.30262998  0.46573874    -0.06900
C98         C  0.46895656  0.19637237  0.07433514    -0.06400
N99         N  0.05725508  0.28574100  0.01613837    -0.25900
N100        N  0.41822269  0.19606114  0.01744373    -0.46700
H101        H  0.44232868  0.30977479  0.07653833     0.06900
C102        C  0.02601882  0.30794126  0.42227850    -0.06800
Cl103      Cl  0.49779958  0.25116164  0.49709868    -0.49800
C104        C  0.00502829  0.18146190  0.40735758     0.42700
H105        H  0.07706130  0.31381877  0.04980431     0.06900
N106        N  0.47577489  0.30525413  0.41877562    -0.46500
C107        C  0.31588834  0.49944881  0.08841939     0.42500
N108        N  0.27904947  0.01231263  0.06077960     0.01400
C109        C  0.19415224  0.42390471  0.46758174    -0.06400
H110        H  0.30748053  0.42153051  0.44378891     0.06900
C111        C  0.30115967  0.03478010  0.42227930    -0.06800
Co112      Co  0.24857673  0.45985844  0.03328466     0.74200
N113        N  0.28154156  0.44213473  0.47845883    -0.26000
Co114      Co  0.24859232  0.46625910  0.45634167     0.74100
C115        C  0.31668419  0.50951040  0.40875904     0.42600
N116        N  0.27713774  0.06538425  0.48865901     0.01100
N117        N  0.28056741  0.49326461  0.43575834     0.01200
N118        N  0.19529781  0.42076792  0.01786574    -0.46800
H119        H  0.30872563  0.44964266  0.07768138     0.06900
N120        N  0.28163165  0.43953750  0.00773778     0.01400
N121        N  0.21539755  0.49090519  0.43503969     0.01200
C122        C  0.17905637  0.00437498  0.40689651     0.42800
N123        N  0.27717164  0.06308061  0.01792138    -0.25400
C124        C  0.19272120  0.46872214  0.07364598    -0.06300
N125        N  0.29981727  0.02301250  0.07882611    -0.46500
N126        N  0.19461993  0.48053543  0.41677903    -0.46800
C127        C  0.17709539  0.99425193  0.08645238     0.42600
N128        N  0.21677692  0.43817102  0.00763283     0.01400
N129        N  0.21237049  0.06019992  0.01743223    -0.25400
N130        N  0.28023938  0.48302738  0.05818423    -0.25900
N131        N  0.21232626  0.06265727  0.48817242     0.01100
H132        H  0.18452488  0.07853679  0.05176787     0.07000
H133        H  0.18687986  0.05405040  0.41839091     0.07000
N134        N  0.21665201  0.44046288  0.47833152    -0.26000
N135        N  0.27924555  0.02252739  0.43838691    -0.25600
N136        N  0.21397216  0.00986712  0.06028848     0.01400
C137        C  0.31686766  0.41074025  0.49312981     0.42800
C138        C  0.29872940  0.08069043  0.02891532    -0.06900
N139        N  0.21455404  0.02016107  0.43762786    -0.25600
H140        H  0.30498431  0.05844040  0.42013590     0.07000
N141        N  0.30219185  0.42069722  0.01742656    -0.46800
H142        H  0.30357101  0.08353068  0.05231078     0.07000
C143        C  0.17489777  0.08873808  0.50223727     0.42700
C144        C  0.30290647  0.47283293  0.07477179    -0.06300
Co145      Co  0.24566048  0.03676523  0.03966393     0.73800
N146        N  0.29772198  0.08394762  0.47866318    -0.46500
C147        C  0.17993765  0.41103521  0.49396274     0.42900
N148        N  0.19169699  0.01894942  0.07731101    -0.46500
Co149      Co  0.24579839  0.04313026  0.46285981     0.73900
C150        C  0.19232746  0.03074302  0.42077335    -0.06900
C151        C  0.30321402  0.42498498  0.46723024    -0.06400
N152        N  0.21516579  0.48061453  0.05788106    -0.25900
N153        N  0.30256677  0.48454280  0.41815029    -0.46700
H154        H  0.18858546  0.42127034  0.44429453     0.06900
C155        C  0.18948998  0.07583919  0.02837624    -0.06800
Cl156      Cl  0.24723986  0.00149722  0.49803610    -0.49800
C157        C  0.31238615  0.09454299  0.50268180     0.42700
H158        H  0.18837984  0.44516090  0.07621980     0.06900
N159        N  0.19047069  0.07974609  0.47816368    -0.46500
C160        C  0.36531547  0.34563560  0.01721867    -0.21200
C161        C  0.38308663  0.34125470  0.49185366    -0.09300
C162        C  0.37906586  0.36012637  0.46713308     0.29600
C163        C  0.35757976  0.38263315  0.46783131    -0.21200
C164        C  0.33973589  0.38696170  0.49311616    -0.09300
C165        C  0.34376542  0.36815158  0.01789033     0.29600
F166        F  0.32645880  0.37095853  0.04249931    -0.19800
H167        H  0.36780783  0.33131736  0.03647676     0.17100
H168        H  0.35519904  0.39693603  0.44856717     0.18000
F169        F  0.39630240  0.35751219  0.44249190    -0.19800
C170        C  0.37285458  0.15019690  0.02352307    -0.21200
C171        C  0.38407405  0.15813613  0.49540175    -0.09300
C172        C  0.37143129  0.14497104  0.46987950     0.29600
C173        C  0.34820840  0.12439590  0.47269696    -0.21200
C174        C  0.33703405  0.11644317  0.50083568    -0.09300
C175        C  0.34955115  0.12972628  0.02632232     0.29600
F176        F  0.33920412  0.12353091  0.05398198    -0.19800
H177        H  0.38195647  0.16008598  0.04358129     0.18000
H178        H  0.33896132  0.11462543  0.45264347     0.18000
F179        F  0.38111829  0.15184566  0.44213791    -0.19800
C180        C  0.11765039  0.36222362  0.52369268    -0.21200
C181        C  0.10955459  0.34603009  0.49818024    -0.09300
C182        C  0.12405763  0.35227274  0.47105206     0.29600
C183        C  0.14649555  0.37381680  0.46976173    -0.21200
C184        C  0.15503644  0.38951785  0.49537073    -0.09300
C185        C  0.14017358  0.38377114  0.52238727     0.29600
F186        F  0.14725094  0.39901235  0.54754839    -0.19800
H187        H  0.10668214  0.35817773  0.54476383     0.18000
H188        H  0.15763349  0.37765978  0.44874005     0.18000
F189        F  0.11718147  0.33712549  0.44579227    -0.19800
C190        C  0.12058851  0.14787205  0.47560541    -0.21200
C191        C  0.10845695  0.15783115  0.50267515    -0.09300
C192        C  0.11686319  0.14328961  0.02919658     0.29600
C193        C  0.13780826  0.12039435  0.02863067    -0.21200
C194        C  0.15085878  0.11127595  0.50179588    -0.09300
C195        C  0.14151639  0.12478272  0.47506378     0.29600
F196        F  0.15290709  0.11615568  0.44843999    -0.19800
H197        H  0.11423679  0.15828320  0.45478659     0.18000
H198        H  0.14402453  0.11012918  0.04951813     0.18000
F199        F  0.10526378  0.15102629  0.05593021    -0.19800
C200        C  0.37286086  0.03578801  0.35086755    -0.21200
C201        C  0.38558773  0.50870099  0.34179737    -0.09300
C202        C  0.37620995  0.48217273  0.35566588     0.29600
C203        C  0.35420488  0.48284418  0.37769578    -0.21200
C204        C  0.34104865  0.50986275  0.38641207    -0.09300
C205        C  0.35084117  0.03648898  0.37284190     0.29600
F206        F  0.33882972  0.06323981  0.37995310    -0.19800
H207        H  0.37946083  0.05656839  0.34057658     0.18000
H208        H  0.34729050  0.46204216  0.38780922     0.18000
F209        F  0.38817394  0.45550747  0.34796673    -0.19800
C210        C  0.12186859  0.02574322  0.34804176    -0.21200
C211        C  0.11037092  0.49782780  0.33985369    -0.09300
C212        C  0.12061318  0.47234409  0.35503948     0.29600
C213        C  0.14271520  0.47489167  0.37689090    -0.21200
C214        C  0.15492993  0.00273373  0.38434712    -0.09300
C215        C  0.14388577  0.02832335  0.36993002     0.29600
F216        F  0.15466509  0.05586345  0.37616270    -0.19800
H217        H  0.11410316  0.04582713  0.33715567     0.18000
H218        H  0.15030260  0.45488032  0.38803783     0.18000
F219        F  0.10960028  0.44487270  0.34895176    -0.19800
C220        C  0.12167035  0.01927692  0.14496063    -0.21200
C221        C  0.10728360  0.99243396  0.15228412    -0.09300
C222        C  0.11472672  0.46649512  0.13629203     0.29600
C223        C  0.13701111  0.46734955  0.11450327    -0.21200
C224        C  0.15214481  0.99399756  0.10804572    -0.09300
C225        C  0.14375691  0.02016739  0.12309375     0.29600
F226        F  0.15735355  0.04658483  0.11733692    -0.19800
H227        H  0.11623827  0.03969317  0.15659970     0.18000
H228        H  0.14246883  0.44698930  0.10282288     0.18000
F229        F  0.10060906  0.44025869  0.14143710    -0.19800
C230        C  0.36688742  0.02809277  0.14947789    -0.21200
C231        C  0.38486237  0.00314586  0.15499636    -0.09300
C232        C  0.38062079  0.47718475  0.13790706     0.29600
C233        C  0.35836172  0.47620916  0.11607307    -0.21200
C234        C  0.34000129  0.50102012  0.11088584    -0.09300
C235        C  0.34456854  0.02710339  0.12778360     0.29600
F236        F  0.32703683  0.05143115  0.12397720    -0.19800
H237        H  0.36954829  0.04822745  0.16249609     0.18000
H238        H  0.35559203  0.45599799  0.10320930     0.18000
F239        F  0.39819258  0.45292819  0.14201921    -0.19800
C240        C  0.47806221  0.14656248  0.37326733    -0.21200
C241        C  0.00520626  0.15685244  0.38514882    -0.09300
C242        C  0.03192399  0.14383591  0.37495331     0.29600
C243        C  0.03132457  0.12203520  0.35270016    -0.21200
C244        C  0.50425049  0.11250183  0.34014401    -0.09300
C245        C  0.47748401  0.12461989  0.35111579     0.29600
F246        F  0.45067716  0.11560820  0.34028699    -0.19800
H247        H  0.45711173  0.15579591  0.38085977     0.18000
H248        H  0.05229389  0.11290998  0.34512481     0.18000
F249        F  0.05881105  0.15207092  0.38606127    -0.19800
C250        C  0.02352290  0.35973290  0.37735160    -0.21200
C251        C  0.49738975  0.34805845  0.38994589    -0.09300
C252        C  0.46974523  0.36052289  0.38177357     0.29600
C253        C  0.46837215  0.38279509  0.35996119    -0.21200
C254        C  0.49447185  0.39313824  0.34606246    -0.09300
C255        C  0.02218927  0.38202502  0.35573963     0.29600
F256        F  0.04813549  0.39201727  0.34380321    -0.19800
H257        H  0.04515907  0.35103348  0.38346461     0.18000
H258        H  0.44676991  0.39136275  0.35351024     0.18000
F259        F  0.44399081  0.35093224  0.39443699    -0.19800
C260        C  0.46500791  0.35976312  0.11617698    -0.21200
C261        C  0.49152233  0.34454695  0.10961299    -0.09300
C262        C  0.01757585  0.35191308  0.12552641     0.29600
C263        C  0.01669080  0.37328644  0.14814591    -0.21200
C264        C  0.98997021  0.38789725  0.15534904    -0.09300
C265        C  0.46416203  0.38130767  0.13865316     0.29600
F266        F  0.43808478  0.39567517  0.14363337    -0.19800
H267        H  0.44475014  0.35504453  0.10392086     0.18000
H268        H  0.03698006  0.37806156  0.16037190     0.18000
F269        F  0.04383266  0.33806630  0.11979928    -0.19800
C270        C  0.02386484  0.14312221  0.11453375    -0.21200
C271        C  0.99698371  0.15856473  0.11008973    -0.09300
C272        C  0.47209799  0.15084004  0.12752950     0.29600
C273        C  0.47412635  0.12810295  0.14866509    -0.21200
C274        C  0.00097353  0.11269311  0.15329030    -0.09300
C275        C  0.02593357  0.12036579  0.13583068     0.29600
F276        F  0.05226888  0.10589978  0.13896425    -0.19800
H277        H  0.04334830  0.14859954  0.10137272     0.18000
H278        H  0.45461152  0.12296916  0.16190355     0.18000
F279        F  0.44602125  0.16590386  0.12518436    -0.19800
C280        C  0.00223060  0.08948337  0.67684210     0.42500
N281        N  0.48807841  0.06223217  0.71363416     0.01400
C282        C  0.07410756  0.46979920  0.80202492    -0.06400
H283        H  0.07435368  0.44313180  0.68830924     0.06900
C284        C  0.46401948  0.42301249  0.69530335    -0.06800
Co285      Co  0.03933349  0.03486839  0.74603970     0.74200
N286        N  0.05625899  0.47869416  0.71472739    -0.26000
Co287      Co  0.03167876  0.45806051  0.74823193     0.74100
C288        C  0.98963465  0.40941431  0.68042784     0.42600
N289        N  0.43408793  0.49053349  0.71617048     0.01100
N290        N  0.00505649  0.43655416  0.71675945     0.01200
N291        N  0.07846817  0.01990383  0.79984192    -0.46800
H292        H  0.05179089  0.07848638  0.68595332     0.06900
N293        N  0.05916330  0.00791621  0.71381003     0.01400
N294        N  0.00626288  0.43876755  0.78190389     0.01200
C295        C  0.49286765  0.41419145  0.82068171     0.42800
N296        N  0.43690749  0.01982870  0.71545211    -0.25400
C297        C  0.02990317  0.07702173  0.80058168    -0.06300
N298        N  0.47819113  0.08015184  0.69241811    -0.46500
N299        N  0.01658923  0.42252136  0.80418982    -0.46800
C300        C  0.50420904  0.09066718  0.81529661     0.42600
N301        N  0.06038917  0.00970860  0.77886482     0.01400
N302        N  0.43758028  0.02172174  0.78022747    -0.25400
N303        N  0.01733569  0.05941258  0.71331416    -0.25900
N304        N  0.43471147  0.49247153  0.78125304     0.01100
H305        H  0.41900512  0.05732380  0.80642080     0.07000
H306        H  0.44315554  0.42467487  0.81216877     0.07000
N307        N  0.05752558  0.48051088  0.77960170    -0.26000
N308        N  0.47581604  0.43939033  0.71733777    -0.25600
N309        N  0.48899546  0.06369833  0.77876214     0.01400
C310        C  0.08535098  0.99221817  0.67697975     0.42800
C311        C  0.42061828  0.03047028  0.69280886    -0.06900
N312        N  0.47699290  0.44152560  0.78245010    -0.25600
H313        H  0.44044300  0.42074880  0.69090083     0.07000
N314        N  0.07651415  0.01691053  0.69174802    -0.46800
H315        H  0.41827679  0.05372194  0.68695060     0.07000
C316        C  0.40780642  0.50826936  0.81742138     0.42700
C317        C  0.02835882  0.07574443  0.69081617    -0.06300
Co318      Co  0.46248277  0.04240255  0.74700015     0.73800
N319        N  0.41649292  0.48020894  0.69481374    -0.46500
C320        C  0.08798124  0.49610657  0.81555365     0.42900
N321        N  0.47968020  0.08145708  0.80038406    -0.46500
Co322      Co  0.45483759  0.46551193  0.74935175     0.73900
C323        C  0.46641279  0.42667246  0.80617003    -0.06900
C324        C  0.07203061  0.46673415  0.69238931    -0.06400
N325        N  0.01826203  0.06079227  0.77833561    -0.25900
N326        N  0.01424877  0.41870974  0.69517289    -0.46700
H327        H  0.07639862  0.44646424  0.80739961     0.06900
C328        C  0.42137617  0.03373059  0.80220212    -0.06800
Cl329      Cl  0.99707463  0.00022167  0.74764111    -0.49800
C330        C  0.40727320  0.00412545  0.67907129     0.42700
H331        H  0.05342097  0.07918011  0.80544391     0.06900
N332        N  0.41698049  0.48350358  0.80304546    -0.46500
C333        C  0.08771837  0.18352489  0.00283876     0.42500
N334        N  0.06106250  0.22024380  0.98764045     0.01400
C335        C  0.46587986  0.30570668  0.57346266    -0.06400
H336        H  0.44569186  0.19055349  0.57671129     0.06900
C337        C  0.42158841  0.19445992  0.96722575    -0.06800
Co338      Co  0.03330615  0.25283913  0.53863236     0.74200
N339        N  0.47940613  0.21887485  0.55771277    -0.26000
Co340      Co  0.45637873  0.25035978  0.53249567     0.74100
C341        C  0.40805615  0.18078198  0.99359419     0.42600
N342        N  0.48906471  0.21755465  0.93460466     0.01100
N343        N  0.43632166  0.21695698  0.50724093     0.01200
N344        N  0.01619182  0.30628459  0.57719100    -0.46800
H345        H  0.07689392  0.19445444  0.55205007     0.06900
N346        N  0.00870942  0.21966976  0.56012680     0.01400
N347        N  0.43417852  0.28181916  0.50649196     0.01200
C348        C  0.40545253  0.31700139  0.99153085     0.42800
N349        N  0.01832139  0.21889864  0.93703411    -0.25400
C350        C  0.07373543  0.30848620  0.52655109    -0.06300
N351        N  0.07838611  0.19827881  0.97825824    -0.46500
N352        N  0.41564193  0.30270719  0.51599870    -0.46800
C353        C  0.08673663  0.32224662  0.99997224     0.42600
N354        N  0.00684539  0.28473370  0.55933162     0.01400
N355        N  0.01603115  0.28400150  0.93709834    -0.25400
N356        N  0.05863318  0.22090053  0.51689034    -0.25900
N357        N  0.48673355  0.28295737  0.93468300     0.01100
H358        H  0.04912019  0.31459234  0.92046621     0.07000
H359        H  0.41586521  0.30666322  0.94224046     0.07000
N360        N  0.47753666  0.28377441  0.55693051    -0.26000
N361        N  0.43853584  0.21662130  0.97795717    -0.25600
N362        N  0.05940910  0.28525670  0.98686048     0.01400
C363        C  0.99544191  0.18294750  0.58783326     0.42800
C364        C  0.03041616  0.19711215  0.92067876    -0.06900
N365        N  0.43646550  0.28124088  0.97721849    -0.25600
H366        H  0.41832571  0.18982995  0.94384926     0.07000
N367        N  0.01922953  0.19859843  0.57794495    -0.46800
H368        H  0.05407780  0.19356201  0.91815285     0.07000
C369        C  0.49920431  0.32214094  0.91029276     0.42700
C370        C  0.07472007  0.19873335  0.52850505    -0.06300
Co371      Co  0.03923832  0.25207852  0.96167945     0.73800
N372        N  0.48015937  0.19560644  0.91692273    -0.46500
C373        C  0.49162062  0.32067249  0.58684877     0.42900
N374        N  0.07692006  0.30649234  0.97636029    -0.46500
Co375      Co  0.46231759  0.24946382  0.95553384     0.73900
C376        C  0.41912524  0.30262907  0.96574102    -0.06900
C377        C  0.46895785  0.19637479  0.57433442    -0.06400
N378        N  0.05725562  0.28574315  0.51613617    -0.25900
N379        N  0.41822235  0.19606431  0.51744431    -0.46700
H380        H  0.44233077  0.30977632  0.57653961     0.06900
C381        C  0.02601664  0.30794351  0.92228164    -0.06800
Cl382      Cl  0.49779819  0.25116062  0.99709965    -0.49800
C383        C  0.00502712  0.18146600  0.90735453     0.42700
H384        H  0.07705861  0.31382416  0.54980122     0.06900
N385        N  0.47577294  0.30525573  0.91877793    -0.46500
C386        C  0.31589172  0.49944752  0.58841833     0.42500
N387        N  0.27905172  0.01231148  0.56077994     0.01400
C388        C  0.19415496  0.42389995  0.96758275    -0.06400
H389        H  0.30748322  0.42153005  0.94379251     0.06900
C390        C  0.30116066  0.03477950  0.92227898    -0.06800
Co391      Co  0.24857734  0.45985841  0.53328405     0.74200
N392        N  0.28154317  0.44213407  0.97846135    -0.26000
Co393      Co  0.24859442  0.46625619  0.95634211     0.74100
C394        C  0.31668594  0.50950898  0.90875869     0.42600
N395        N  0.27713562  0.06538418  0.98865715     0.01100
N396        N  0.28056976  0.49326224  0.93575866     0.01200
N397        N  0.19529623  0.42076996  0.51786455    -0.46800
H398        H  0.30872901  0.44964144  0.57767936     0.06900
N399        N  0.28163093  0.43953749  0.50773526     0.01400
N400        N  0.21540033  0.49089986  0.93503730     0.01200
C401        C  0.17906732  0.00436981  0.90688633     0.42800
N402        N  0.27717416  0.06308012  0.51792321    -0.25400
C403        C  0.19272249  0.46872199  0.57364635    -0.06300
N404        N  0.29982030  0.02301117  0.57882562    -0.46500
N405        N  0.19462608  0.48052852  0.91677342    -0.46800
C406        C  0.17709712  0.99425238  0.58645337     0.42600
N407        N  0.21677594  0.43817264  0.50763209     0.01400
N408        N  0.21237331  0.06020168  0.51743586    -0.25400
N409        N  0.28024149  0.48302624  0.55818390    -0.25900
N410        N  0.21232389  0.06265455  0.98816867     0.01100
H411        H  0.18452940  0.07853891  0.55177266     0.07000
H412        H  0.18688038  0.05404450  0.91838258     0.07000
N413        N  0.21665380  0.44045975  0.97833213    -0.26000
N414        N  0.27924707  0.02252605  0.93838674    -0.25600
N415        N  0.21397439  0.00986729  0.56029013     0.01400
C416        C  0.31686962  0.41074117  0.99313388     0.42800
C417        C  0.29873191  0.08068980  0.52891733    -0.06900
N418        N  0.21455681  0.02015690  0.93762409    -0.25600
H419        H  0.30498349  0.05843999  0.92013449     0.07000
N420        N  0.30219083  0.42069635  0.51742301    -0.46800
H421        H  0.30357321  0.08353009  0.55231284     0.07000
C422        C  0.17489363  0.08873397  0.00223207     0.42700
C423        C  0.30290938  0.47283168  0.57477058    -0.06300
Co424      Co  0.24566289  0.03676517  0.53966580     0.73800
N425        N  0.29772025  0.08394704  0.97866109    -0.46500
C426        C  0.17994028  0.41103113  0.99396420     0.42900
N427        N  0.19169936  0.01894973  0.57731271    -0.46500
Co428      Co  0.24579810  0.04312814  0.96285768     0.73900
C429        C  0.19233342  0.03073805  0.92076523    -0.06900
C430        C  0.30321627  0.42498484  0.96723371    -0.06400
N431        N  0.21516745  0.48061437  0.55788195    -0.25900
N432        N  0.30256948  0.48454098  0.91815071    -0.46700
H433        H  0.18858891  0.42126396  0.94429555     0.06900
C434        C  0.18949390  0.07584183  0.52838084    -0.06800
Cl435      Cl  0.24723959  0.00149618  0.99803520    -0.49800
C436        C  0.31238413  0.09454292  0.00267962     0.42700
H437        H  0.18838036  0.44516078  0.57621913     0.06900
N438        N  0.19046762  0.07974209  0.97815900    -0.46500
C439        C  0.36531010  0.34563128  0.51721262    -0.21200
C440        C  0.38308693  0.34125451  0.99185692    -0.09300
C441        C  0.37906213  0.36012260  0.96713425     0.29600
C442        C  0.35757704  0.38263006  0.96783321    -0.21200
C443        C  0.33973788  0.38696282  0.99312061    -0.09300
C444        C  0.34375924  0.36814657  0.51788365     0.29600
F445        F  0.32644766  0.37094903  0.54248966    -0.19800
H446        H  0.36779917  0.33131003  0.53646891     0.17100
H447        H  0.35519325  0.39692983  0.94856718     0.18000
F448        F  0.39629324  0.35750409  0.94248977    -0.19800
C449        C  0.37285881  0.15019492  0.52352512    -0.21200
C450        C  0.38407502  0.15813291  0.99540033    -0.09300
C451        C  0.37143733  0.14496267  0.96987819     0.29600
C452        C  0.34821328  0.12438859  0.97269521    -0.21200
C453        C  0.33703330  0.11644170  0.00083341    -0.09300
C454        C  0.34955621  0.12972333  0.52632486     0.29600
F455        F  0.33921480  0.12352209  0.55398532    -0.19800
H456        H  0.38196457  0.16008020  0.54358348     0.18000
H457        H  0.33896993  0.11461411  0.95264196     0.18000
F458        F  0.38113103  0.15183062  0.94213727    -0.19800
C459        C  0.11765444  0.36221843  0.02369592    -0.21200
C460        C  0.10955837  0.34602472  0.99818371    -0.09300
C461        C  0.12406203  0.35226624  0.97105559     0.29600
C462        C  0.14649970  0.37381048  0.96976472    -0.21200
C463        C  0.15504009  0.38951261  0.99537316    -0.09300
C464        C  0.14017762  0.38376600  0.02239002     0.29600
F465        F  0.14725514  0.39900751  0.04755092    -0.19800
H466        H  0.10668609  0.35817297  0.04476710     0.18000
H467        H  0.15763768  0.37765297  0.94874297     0.18000
F468        F  0.11718653  0.33711788  0.94579631    -0.19800
C469        C  0.12058784  0.14787216  0.97560132    -0.21200
C470        C  0.10845114  0.15782591  0.00267078    -0.09300
C471        C  0.11687518  0.14330124  0.52920253     0.29600
C472        C  0.13781989  0.12040576  0.52863720    -0.21200
C473        C  0.15085332  0.11127073  0.00179016    -0.09300
C474        C  0.14151585  0.12478281  0.97505901     0.29600
F475        F  0.15291212  0.11616154  0.94843575    -0.19800
H476        H  0.11424058  0.15828796  0.95478349     0.18000
H477        H  0.14404089  0.11014553  0.54952568     0.18000
F478        F  0.10528284  0.15104474  0.55593723    -0.19800
C479        C  0.37286667  0.03579033  0.85087135    -0.21200
C480        C  0.38558928  0.50870141  0.84179617    -0.09300
C481        C  0.37620761  0.48217219  0.85566031     0.29600
C482        C  0.35420272  0.48284308  0.87769039    -0.21200
C483        C  0.34105029  0.50986197  0.88641134    -0.09300
C484        C  0.35084717  0.03649069  0.87284610     0.29600
F485        F  0.33883988  0.06324211  0.87996210    -0.19800
H486        H  0.37946951  0.05657146  0.84058373     0.18000
H487        H  0.34728539  0.46204026  0.88780018     0.18000
F488        F  0.38816732  0.45550637  0.84795650    -0.19800
C489        C  0.12197880  0.02573681  0.84794182    -0.21200
C490        C  0.11038222  0.49783388  0.83984628    -0.09300
C491        C  0.12053661  0.47236329  0.85511309     0.29600
C492        C  0.14264421  0.47490545  0.87696000    -0.21200
C493        C  0.15494644  0.00273245  0.88433343    -0.09300
C494        C  0.14400089  0.02831197  0.86982499     0.29600
F495        F  0.15489150  0.05583173  0.87595617    -0.19800
H496        H  0.11429174  0.04581119  0.83698286     0.18000
H497        H  0.15016170  0.45490554  0.88817487     0.18000
F498        F  0.10942061  0.44491238  0.84911906    -0.19800
C499        C  0.12167207  0.01927794  0.64496110    -0.21200
C500        C  0.10728631  0.99243477  0.65228575    -0.09300
C501        C  0.11472871  0.46649517  0.63629316     0.29600
C502        C  0.13701297  0.46734943  0.61450429    -0.21200
C503        C  0.15214648  0.99399819  0.60804652    -0.09300
C504        C  0.14375797  0.02016838  0.62309360     0.29600
F505        F  0.15735319  0.04658618  0.61733506    -0.19800
H506        H  0.11623964  0.03969441  0.65659963     0.18000
H507        H  0.14247086  0.44698904  0.60282426     0.18000
F508        F  0.10061089  0.44025887  0.64143842    -0.19800
C509        C  0.36689561  0.02809398  0.64947211    -0.21200
C510        C  0.38486873  0.00314620  0.65499284    -0.09300
C511        C  0.38062546  0.47718415  0.63790507     0.29600
C512        C  0.35836576  0.47620818  0.61607164    -0.21200
C513        C  0.34000587  0.50101938  0.61088370    -0.09300
C514        C  0.34457633  0.02710430  0.62777817     0.29600
F515        F  0.32704694  0.05143338  0.62396943    -0.19800
H516        H  0.36955806  0.04822969  0.66248839     0.18000
H517        H  0.35559503  0.45599645  0.60320902     0.18000
F518        F  0.39819675  0.45292734  0.64201775    -0.19800
C519        C  0.47806193  0.14656777  0.87326271    -0.21200
C520        C  0.00520565  0.15685797  0.88514451    -0.09300
C521        C  0.03192372  0.14384194  0.87494931     0.29600
C522        C  0.03132488  0.12204116  0.85269637    -0.21200
C523        C  0.50425116  0.11250734  0.84014008    -0.09300
C524        C  0.47748434  0.12462534  0.85111107     0.29600
F525        F  0.45067779  0.11561369  0.84028149    -0.19800
H526        H  0.45711125  0.15580083  0.88085499     0.18000
H527        H  0.05229440  0.11291590  0.84512164     0.18000
F528        F  0.05881057  0.15207738  0.88605744    -0.19800
C529        C  0.02352129  0.35974173  0.87736187    -0.21200
C530        C  0.49738754  0.34806171  0.88994977    -0.09300
C531        C  0.46974262  0.36052193  0.88177212     0.29600
C532        C  0.46837041  0.38279472  0.85996021    -0.21200
C533        C  0.49447131  0.39314295  0.84606734    -0.09300
C534        C  0.02218843  0.38203481  0.85575066     0.29600
F535        F  0.04813548  0.39203342  0.84382133    -0.19800
H536        H  0.04515774  0.35104643  0.88347965     0.18000
H537        H  0.44676800  0.39135850  0.85350464     0.18000
F538        F  0.44398703  0.35092628  0.89442946    -0.19800
C539        C  0.46501156  0.35976334  0.61617948    -0.21200
C540        C  0.49152575  0.34454754  0.60961415    -0.09300
C541        C  0.01758015  0.35191393  0.62552649     0.29600
C542        C  0.01669585  0.37328707  0.64814637    -0.21200
C543        C  0.98997534  0.38789737  0.65535087    -0.09300
C544        C  0.46416660  0.38130802  0.63865548     0.29600
F545        F  0.43808963  0.39567583  0.64363602    -0.19800
H546        H  0.44475326  0.35504461  0.60392430     0.18000
H547        H  0.03698559  0.37806258  0.66037143     0.18000
F548        F  0.04383707  0.33806816  0.61979738    -0.19800
C549        C  0.02386795  0.14312844  0.61453651    -0.21200
C550        C  0.99698539  0.15856763  0.61008953    -0.09300
C551        C  0.47209875  0.15083961  0.62752655     0.29600
C552        C  0.47412784  0.12810290  0.64866252    -0.21200
C553        C  0.00097647  0.11269673  0.65329088    -0.09300
C554        C  0.02593739  0.12037260  0.63583393     0.29600
F555        F  0.05227448  0.10591057  0.63897078    -0.19800
H556        H  0.04335218  0.14860811  0.60137756     0.18000
H557        H  0.45461218  0.12296657  0.66189882     0.18000
F558        F  0.44602021  0.16589985  0.62517846    -0.19800
C559        C  0.00219185  0.58949676  0.17683893     0.42500
N560        N  0.48805276  0.56223491  0.21362878     0.01400
C561        C  0.07408019  0.96975587  0.30202614    -0.06400
H562        H  0.07431494  0.94311367  0.18829065     0.06900
C563        C  0.46399172  0.92302977  0.19528778    -0.06800
Co564      Co  0.03932037  0.53488348  0.24602853     0.74200
N565        N  0.05624617  0.97867617  0.21472540    -0.26000
Co566      Co  0.03165918  0.95804642  0.24822539     0.74100
C567        C  0.98960471  0.90942881  0.18040876     0.42600
N568        N  0.43407653  0.99055138  0.21617705     0.01100
N569        N  0.00503077  0.93655464  0.21674974     0.01200
N570        N  0.07846847  0.51993870  0.29982536    -0.46800
H571        H  0.05175634  0.57851006  0.18594207     0.06900
N572        N  0.05915773  0.50793342  0.21380102     0.01400
N573        N  0.00623841  0.93875977  0.28189329     0.01200
C574        C  0.49284227  0.91419741  0.32067756     0.42800
N575        N  0.43690376  0.51981061  0.21544882    -0.25400
C576        C  0.02988738  0.57703760  0.30056615    -0.06300
N577        N  0.47815736  0.58015748  0.19241820    -0.46500
N578        N  0.01656322  0.92251599  0.30418046    -0.46800
C579        C  0.50419332  0.59067609  0.31528679     0.42600
N580        N  0.06038609  0.50973380  0.27885582     0.01400
N581        N  0.43757784  0.52170611  0.28022696    -0.25400
N582        N  0.01731064  0.55942114  0.21330324    -0.25900
N583        N  0.43470256  0.99248414  0.28125458     0.01100
H584        H  0.41900105  0.55730451  0.30642261     0.07000
H585        H  0.44313184  0.92469569  0.31217328     0.07000
N586        N  0.05751429  0.98048056  0.27959857    -0.26000
N587        N  0.47579109  0.93939807  0.21732866    -0.25600
N588        N  0.48897812  0.56370091  0.27875723     0.01400
C589        C  0.08536169  0.49223640  0.17698161     0.42800
C590        C  0.42062802  0.53044772  0.19279430    -0.06900
N591        N  0.47696965  0.94152721  0.28244368    -0.25600
H592        H  0.44041509  0.92077613  0.19088143     0.07000
N593        N  0.07651263  0.51692909  0.19174230    -0.46800
H594        H  0.41829049  0.55369833  0.18693039     0.07000
C595        C  0.40779568  0.00828724  0.31741942     0.42700
C596        C  0.02832556  0.57575979  0.19080622    -0.06300
Co597      Co  0.46246928  0.54239469  0.24699752     0.73800
N598        N  0.41646242  0.98023178  0.19483514    -0.46500
C599        C  0.08796685  0.99605260  0.31556370     0.42900
N600        N  0.47966282  0.58145842  0.30038069    -0.46500
Co601      Co  0.45482108  0.96552161  0.24934991     0.73900
C602        C  0.46638836  0.92668245  0.30616826    -0.06900
C603        C  0.07200702  0.96671580  0.19238000    -0.06400
N604        N  0.01824552  0.56080365  0.27832433    -0.25900
N605        N  0.01421955  0.91871480  0.19515810    -0.46700
H606        H  0.07631556  0.94642127  0.30742271     0.06900
C607        C  0.42137592  0.53371165  0.30220444    -0.06800
Cl608      Cl  0.99707365  0.50022305  0.24763811    -0.49800
C609        C  0.40729892  0.50410058  0.17904645     0.42700
H610        H  0.05340579  0.57920236  0.30542236     0.06900
N611        N  0.41696640  0.98351968  0.30304433    -0.46500
C612        C  0.08771963  0.68353703  0.50283786     0.42500
N613        N  0.06105744  0.72025064  0.48762849     0.01400
C614        C  0.46586095  0.80572686  0.07343282    -0.06400
H615        H  0.44565588  0.69059499  0.07671986     0.06900
C616        C  0.42158742  0.69446719  0.46720391    -0.06800
Co617      Co  0.03328808  0.75284692  0.03861806     0.74200
N618        N  0.47937913  0.71889291  0.05770099    -0.26000
Co619      Co  0.45636026  0.75037470  0.03247441     0.74100
C620        C  0.40805553  0.68078667  0.49357127     0.42600
N621        N  0.48905887  0.71756762  0.43458882     0.01100
N622        N  0.43630524  0.71696931  0.00721816     0.01200
N623        N  0.01617232  0.80630327  0.07716696    -0.46800
H624        H  0.07684592  0.69444820  0.05203901     0.06900
N625        N  0.00868250  0.71968271  0.06011576     0.01400
N626        N  0.43416683  0.78183465  0.00646798     0.01200
C627        C  0.40546340  0.81703727  0.49150594     0.42800
N628        N  0.01831570  0.71891105  0.43701914    -0.25400
C629        C  0.07374150  0.80848170  0.02654386    -0.06300
N630        N  0.07838988  0.69828808  0.47825318    -0.46500
N631        N  0.41564209  0.80273199  0.01597596    -0.46800
C632        C  0.08675090  0.82224273  0.49996202     0.42600
N633        N  0.00682727  0.78474821  0.05931144     0.01400
N634        N  0.01602659  0.78401391  0.43708512    -0.25400
N635        N  0.05861420  0.72090277  0.01687619    -0.25900
N636        N  0.48672896  0.78296775  0.43466755     0.01100
H637        H  0.04911211  0.81461429  0.42046287     0.07000
H638        H  0.41587543  0.80670276  0.44221536     0.07000
N639        N  0.47751863  0.78379032  0.05690724    -0.26000
N640        N  0.43852512  0.71663591  0.47793587    -0.25600
N641        N  0.05940888  0.78526397  0.48684700     0.01400
C642        C  0.99540359  0.68297996  0.08784462     0.42800
C643        C  0.03041075  0.69712478  0.42066398    -0.06900
N644        N  0.43645819  0.78126044  0.47719249    -0.25600
H645        H  0.41833635  0.68982857  0.44382752     0.07000
N646        N  0.01919576  0.69861926  0.07794743    -0.46800
H647        H  0.05407245  0.69357344  0.41814046     0.07000
C648        C  0.49919522  0.82215744  0.41028798     0.42700
C649        C  0.07469524  0.69873335  0.02849365    -0.06300
Co650      Co  0.03923427  0.75208832  0.46166530     0.73800
N651        N  0.48015386  0.69561985  0.41690653    -0.46500
C652        C  0.49160037  0.82069494  0.08681874     0.42900
N653        N  0.07693100  0.80649189  0.47634897    -0.46500
Co654      Co  0.46231027  0.74947760  0.45551393     0.73900
C655        C  0.41912955  0.80265967  0.46571536    -0.06900
C656        C  0.46892379  0.69640616  0.07433689    -0.06400
N657        N  0.05725010  0.78574759  0.01612576    -0.25900
N658        N  0.41821427  0.69606806  0.01741976    -0.46700
H659        H  0.44231158  0.80979870  0.07650453     0.06900
C660        C  0.02600958  0.80796083  0.42227446    -0.06800
Cl661      Cl  0.49778775  0.75117392  0.49708206    -0.49800
C662        C  0.00502176  0.68147950  0.40733887     0.42700
H663        H  0.07706832  0.81381519  0.04979457     0.06900
N664        N  0.47576620  0.80526799  0.41876763    -0.46500
C665        C  0.31584902  0.99946373  0.08846265     0.42500
N666        N  0.27906742  0.51229900  0.06076146     0.01400
C667        C  0.19415543  0.92391797  0.46758279    -0.06400
H668        H  0.30750520  0.92158073  0.44379235     0.06900
C669        C  0.30115325  0.53475920  0.42226261    -0.06800
Co670      Co  0.24857460  0.95986994  0.03329089     0.74200
N671        N  0.28154772  0.94215931  0.47846413    -0.26000
Co672      Co  0.24859583  0.96627780  0.45634871     0.74100
C673        C  0.31669018  0.00953200  0.40877293     0.42600
N674        N  0.27714441  0.56536971  0.48863891     0.01100
N675        N  0.28057064  0.99328526  0.43576844     0.01200
N676        N  0.19529728  0.92077976  0.01786604    -0.46800
H677        H  0.30869736  0.94965716  0.07771749     0.06900
N678        N  0.28163779  0.93955915  0.00774237     0.01400
N679        N  0.21540037  0.99092429  0.43505119     0.01200
C680        C  0.17908183  0.50436063  0.40686012     0.42800
N681        N  0.27718458  0.56306362  0.01790014    -0.25400
C682        C  0.19271605  0.96872019  0.07364895    -0.06300
N683        N  0.29985061  0.52299803  0.07879157    -0.46500
N684        N  0.19461565  0.98055555  0.41680013    -0.46800
C685        C  0.17710762  0.49425771  0.08645075     0.42600
N686        N  0.21677864  0.93818181  0.00763502     0.01400
N687        N  0.21238080  0.56019206  0.01741913    -0.25400
N688        N  0.28022650  0.98304145  0.05819949    -0.25900
N689        N  0.21232718  0.56264708  0.48815964     0.01100
H690        H  0.18454593  0.57852693  0.05176153     0.07000
H691        H  0.18687176  0.55403090  0.41835880     0.07000
N692        N  0.21665525  0.94047562  0.47833440    -0.26000
N693        N  0.27924166  0.52250719  0.43837323    -0.25600
N694        N  0.21398506  0.50986382  0.06028192     0.01400
C695        C  0.31689372  0.91078734  0.49313159     0.42800
C696        C  0.29875084  0.58066469  0.02889086    -0.06900
N697        N  0.21455502  0.52014386  0.43761185    -0.25600
H698        H  0.30497418  0.55841960  0.42011530     0.07000
N699        N  0.30221003  0.92073079  0.01742904    -0.46800
H700        H  0.30359690  0.58350085  0.05228575     0.07000
C701        C  0.17490294  0.58873298  0.50223440     0.42700
C702        C  0.30288159  0.97284758  0.07480241    -0.06300
Co703      Co  0.24567405  0.53675482  0.03964922     0.73800
N704        N  0.29773377  0.58392681  0.47864035    -0.46500
C705        C  0.17993814  0.91104828  0.49396242     0.42900
N706        N  0.19171349  0.51895161  0.07730646    -0.46500
Co707      Co  0.24579823  0.54311484  0.46284479     0.73900
C708        C  0.19234007  0.53072670  0.42074284    -0.06900
C709        C  0.30323214  0.92502598  0.46723387    -0.06400
N710        N  0.21515881  0.98061814  0.05788611    -0.25900
N711        N  0.30257098  0.98456436  0.41816096    -0.46700
H712        H  0.18858816  0.92128502  0.44429546     0.06900
C713        C  0.18950489  0.57583365  0.02836830    -0.06800
Cl714      Cl  0.24724219  0.50148308  0.49802505    -0.49800
C715        C  0.31240777  0.59451506  0.50265695     0.42700
H716        H  0.18837971  0.94515785  0.07622080     0.06900
N717        N  0.19046828  0.57973693  0.47815611    -0.46500
C718        C  0.36532868  0.84566783  0.01719636    -0.21200
C719        C  0.38310870  0.84129975  0.49183699    -0.09300
C720        C  0.37910674  0.86019163  0.46712893     0.29600
C721        C  0.35762498  0.88270351  0.46783369    -0.21200
C722        C  0.33976820  0.88701518  0.49311316    -0.09300
C723        C  0.34378432  0.86818794  0.01787491     0.29600
F724        F  0.32646629  0.87097937  0.04247751    -0.19800
H725        H  0.36780752  0.83133436  0.03644487     0.17100
H726        H  0.35525498  0.89702109  0.44857900     0.18000
F727        F  0.39635601  0.85758963  0.44249510    -0.19800
C728        C  0.37290609  0.65013955  0.02349915    -0.21200
C729        C  0.38408797  0.65812184  0.49537615    -0.09300
C730        C  0.37141947  0.64498496  0.46985163     0.29600
C731        C  0.34820248  0.62440219  0.47266915    -0.21200
C732        C  0.33705915  0.61641343  0.50081019    -0.09300
C733        C  0.34960986  0.62966038  0.02629891     0.29600
F734        F  0.33930355  0.62342130  0.05396379    -0.19800
H735        H  0.38203146  0.66000238  0.04355971     0.18000
H736        H  0.33893228  0.61465788  0.45261359     0.18000
F737        F  0.38107028  0.65190032  0.44210754    -0.19800
C738        C  0.11762317  0.86225864  0.52367411    -0.21200
C739        C  0.10957688  0.84601796  0.49817576    -0.09300
C740        C  0.12412797  0.85221588  0.47106297     0.29600
C741        C  0.14655675  0.87376974  0.46977254    -0.21200
C742        C  0.15504417  0.88952217  0.49536731    -0.09300
C743        C  0.14013932  0.88381479  0.52236901     0.29600
F744        F  0.14716570  0.89910689  0.54751351    -0.19800
H745        H  0.10661747  0.85824630  0.54473232     0.18000
H746        H  0.15773217  0.87757906  0.44876443     0.18000
F747        F  0.11731000  0.83701311  0.44582096    -0.19800
C748        C  0.12046901  0.64776342  0.47559693    -0.21200
C749        C  0.10846918  0.65784635  0.50268142    -0.09300
C750        C  0.11702255  0.64343373  0.02922600     0.29600
C751        C  0.13795886  0.62053169  0.02865894    -0.21200
C752        C  0.15086905  0.61128090  0.50180316    -0.09300
C753        C  0.14139633  0.62466957  0.47505674     0.29600
F754        F  0.15264878  0.61591221  0.44841657    -0.19800
H755        H  0.11400745  0.65807482  0.45476214     0.18000
H756        H  0.14428704  0.61037499  0.04956533     0.18000
F757        F  0.10559546  0.65131725  0.05599000    -0.19800
C758        C  0.37289102  0.53576966  0.35089110    -0.21200
C759        C  0.38558074  0.00872260  0.34179640    -0.09300
C760        C  0.37623011  0.98219874  0.35569148     0.29600
C761        C  0.35422959  0.98287050  0.37772642    -0.21200
C762        C  0.34105107  0.00988522  0.38642138    -0.09300
C763        C  0.35086675  0.53647040  0.37286022     0.29600
F764        F  0.33888163  0.56322659  0.37999547    -0.19800
H765        H  0.37951351  0.55655413  0.34062304     0.18000
H766        H  0.34733687  0.96207185  0.38786149     0.18000
F767        F  0.38821878  0.95553789  0.34801535    -0.19800
C768        C  0.12235614  0.52572762  0.34758645    -0.21200
C769        C  0.11034150  0.99777348  0.33988283    -0.09300
C770        C  0.12103170  0.97223100  0.35465357     0.29600
C771        C  0.14310941  0.97480525  0.37652360    -0.21200
C772        C  0.15497807  0.50274240  0.38429532    -0.09300
C773        C  0.14439043  0.52828194  0.36945885     0.29600
F774        F  0.15567855  0.55572081  0.37523478    -0.19800
H775        H  0.11495532  0.54576343  0.33636323     0.18000
H776        H  0.15105147  0.95474384  0.38732700     0.18000
F777        F  0.11053942  0.94466759  0.34809002    -0.19800
C778        C  0.12172158  0.51928601  0.14499617    -0.21200
C779        C  0.10730491  0.49245212  0.15229421    -0.09300
C780        C  0.11473246  0.96647071  0.13630465     0.29600
C781        C  0.13701915  0.96732856  0.11451871    -0.21200
C782        C  0.15216291  0.49400891  0.10805144    -0.09300
C783        C  0.14380713  0.52017307  0.12312756     0.29600
F784        F  0.15743515  0.54658015  0.11739704    -0.19800
H785        H  0.11631330  0.53969664  0.15665620     0.18000
H786        H  0.14250055  0.94696288  0.10285918     0.18000
F787        F  0.10064321  0.94022360  0.14147205    -0.19800
C788        C  0.36693236  0.52807021  0.14943469    -0.21200
C789        C  0.38490709  0.50312322  0.15495414    -0.09300
C790        C  0.38056569  0.97720123  0.13796175     0.29600
C791        C  0.35830492  0.97622278  0.11613212    -0.21200
C792        C  0.33995068  0.00103577  0.11093829    -0.09300
C793        C  0.34461835  0.52708483  0.12773540     0.29600
F794        F  0.32708679  0.55141296  0.12393182    -0.19800
H795        H  0.36958702  0.54820202  0.16245845     0.18000
H796        H  0.35553187  0.95600826  0.10327451     0.18000
F797        F  0.39813102  0.95294102  0.14207982    -0.19800
C798        C  0.47805314  0.64656469  0.37326770    -0.21200
C799        C  0.00519935  0.65687036  0.38513081    -0.09300
C800        C  0.03191772  0.64386860  0.37491891     0.29600
C801        C  0.03131582  0.62206667  0.35266751    -0.21200
C802        C  0.50423874  0.61251705  0.34012965    -0.09300
C803        C  0.47747267  0.62462022  0.35111818     0.29600
F804        F  0.45066390  0.61559095  0.34030894    -0.19800
H805        H  0.45710244  0.65578623  0.38087391     0.18000
H806        H  0.05228559  0.61295378  0.34507889     0.18000
F807        F  0.05880770  0.65212048  0.38600740    -0.19800
C808        C  0.02350467  0.85975638  0.37735491    -0.21200
C809        C  0.49737351  0.84807872  0.38994852    -0.09300
C810        C  0.46972641  0.86053872  0.38177676     0.29600
C811        C  0.46834980  0.88281062  0.35996481    -0.21200
C812        C  0.49444828  0.89315540  0.34606595    -0.09300
C813        C  0.02216746  0.88204682  0.35574292     0.29600
F814        F  0.04811238  0.89204068  0.34380501    -0.19800
H815        H  0.04514206  0.85105951  0.38346709     0.18000
H816        H  0.44674645  0.89137463  0.35351241     0.18000
F817        F  0.44397312  0.85094223  0.39443805    -0.19800
C818        C  0.46498046  0.85976828  0.11616566    -0.21200
C819        C  0.49150206  0.84457199  0.10958317    -0.09300
C820        C  0.01755999  0.85195672  0.12548082     0.29600
C821        C  0.01667300  0.87332765  0.14810291    -0.21200
C822        C  0.98994557  0.88791687  0.15532620    -0.09300
C823        C  0.46413189  0.88130902  0.13864577     0.29600
F824        F  0.43804493  0.89565112  0.14364793    -0.19800
H825        H  0.44471782  0.85503489  0.10392346     0.18000
H826        H  0.03696688  0.87811723  0.16031559     0.18000
F827        F  0.04382378  0.83813058  0.11973571    -0.19800
C828        C  0.02382318  0.64315629  0.11454435    -0.21200
C829        C  0.99694261  0.65859912  0.11010138    -0.09300
C830        C  0.47205495  0.65086805  0.12753683     0.29600
C831        C  0.47408347  0.62812582  0.14866912    -0.21200
C832        C  0.00093175  0.61271610  0.15329233    -0.09300
C833        C  0.02589090  0.62039377  0.13583407     0.29600
F834        F  0.05222502  0.60592443  0.13895981    -0.19800
H835        H  0.04330740  0.64863608  0.10138548     0.18000
H836        H  0.45456839  0.62298660  0.16190517     0.18000
F837        F  0.44597612  0.66592811  0.12518831    -0.19800
C838        C  0.00219463  0.58949947  0.67683960     0.42500
N839        N  0.48805548  0.56223573  0.71362797     0.01400
C840        C  0.07408602  0.96976087  0.80202763    -0.06400
H841        H  0.07432009  0.94311455  0.68829466     0.06900
C842        C  0.46399688  0.92303028  0.69529005    -0.06800
Co843      Co  0.03932267  0.53488484  0.74602846     0.74200
N844        N  0.05625020  0.97867747  0.71472812    -0.26000
Co845      Co  0.03166291  0.95804839  0.74822848     0.74100
C846        C  0.98961004  0.90942875  0.68041196     0.42600
N847        N  0.43408072  0.99055229  0.71617598     0.01100
N848        N  0.00503542  0.93655518  0.71675283     0.01200
N849        N  0.07847302  0.51994295  0.79982304    -0.46800
H850        H  0.05175918  0.57851295  0.68594320     0.06900
N851        N  0.05916058  0.50793406  0.71380214     0.01400
N852        N  0.00624119  0.93876296  0.78189685     0.01200
C853        C  0.49284354  0.91420271  0.82068207     0.42800
N854        N  0.43690753  0.51981069  0.71544753    -0.25400
C855        C  0.02988893  0.57704055  0.80056442    -0.06300
N856        N  0.47816017  0.58015920  0.69241811    -0.46500
N857        N  0.01656513  0.92252057  0.80418556    -0.46800
C858        C  0.50419469  0.59067931  0.81528424     0.42600
N859        N  0.06038825  0.50973651  0.77885649     0.01400
N860        N  0.43758000  0.52170721  0.78022591    -0.25400
N861        N  0.01731326  0.55942210  0.71330264    -0.25900
N862        N  0.43470501  0.99248653  0.78125385     0.01100
H863        H  0.41900246  0.55730558  0.80642117     0.07000
H864        H  0.44313352  0.92470043  0.81217498     0.07000
N865        N  0.05751710  0.98048404  0.77960131    -0.26000
N866        N  0.47579581  0.93939898  0.71733077    -0.25600
N867        N  0.48898003  0.56370237  0.77875598     0.01400
C868        C  0.08536463  0.49223658  0.67698313     0.42800
C869        C  0.42063273  0.53044758  0.69279226    -0.06900
N870        N  0.47697251  0.94153023  0.78244580    -0.25600
H871        H  0.44042033  0.92077676  0.69088328     0.07000
N872        N  0.07651490  0.51692951  0.69174291    -0.46800
H873        H  0.41829549  0.55369815  0.68692808     0.07000
C874        C  0.40779772  0.00828977  0.81741847     0.42700
C875        C  0.02832832  0.57576193  0.69080653    -0.06300
Co876      Co  0.46247191  0.54239542  0.74699647     0.73800
N877        N  0.41646762  0.98023239  0.69483331    -0.46500
C878        C  0.08797161  0.99605899  0.81556338     0.42900
N879        N  0.47966435  0.58146067  0.80037856    -0.46500
Co880      Co  0.45482463  0.96552338  0.74935044     0.73900
C881        C  0.46639029  0.92668673  0.80617074    -0.06900
C882        C  0.07201151  0.96671676  0.69238323    -0.06400
N883        N  0.01824736  0.56080552  0.77832330    -0.25900
N884        N  0.01422465  0.91871476  0.69516177    -0.46700
H885        H  0.07633094  0.94642603  0.80741967     0.06900
C886        C  0.42137763  0.53371272  0.80220318    -0.06800
Cl887      Cl  0.99707666  0.50022402  0.74763857    -0.49800
C888        C  0.40730427  0.50410036  0.67904401     0.42700
H889        H  0.05340731  0.57920597  0.80542048     0.06900
N890        N  0.41696880  0.98352223  0.80304359    -0.46500
C891        C  0.08771613  0.68353361  0.00283426     0.42500
N892        N  0.06105581  0.72024964  0.98762723     0.01400
C893        C  0.46586294  0.80572851  0.57343461    -0.06400
H894        H  0.44565691  0.69059764  0.57672026     0.06900
C895        C  0.42158769  0.69446522  0.96720236    -0.06800
Co896      Co  0.03328902  0.75284919  0.53861795     0.74200
N897        N  0.47938012  0.71889553  0.55770143    -0.26000
Co898      Co  0.45636132  0.75037719  0.53247463     0.74100
C899        C  0.40805686  0.68078313  0.99356948     0.42600
N900        N  0.48905777  0.71756888  0.93458748     0.01100
N901        N  0.43630558  0.71697171  0.50721921     0.01200
N902        N  0.01617439  0.80630428  0.57716787    -0.46800
H903        H  0.07684748  0.69445323  0.55204183     0.06900
N904        N  0.00868349  0.71968537  0.56011619     0.01400
N905        N  0.43416813  0.78183680  0.50646741     0.01200
C906        C  0.40546262  0.81703584  0.99150732     0.42800
N907        N  0.01831445  0.71891263  0.93701790    -0.25400
C908        C  0.07374001  0.80848518  0.52654199    -0.06300
N909        N  0.07838684  0.69828652  0.97825056    -0.46500
N910        N  0.41564290  0.80273397  0.51597489    -0.46800
C911        C  0.08675295  0.82223946  0.99996423     0.42600
N912        N  0.00682877  0.78475046  0.55931120     0.01400
N913        N  0.01602495  0.78401530  0.93708633    -0.25400
N914        N  0.05861543  0.72090500  0.51687735    -0.25900
N915        N  0.48672745  0.78296873  0.93466832     0.01100
H916        H  0.04911023  0.81461644  0.92046513     0.07000
H917        H  0.41587462  0.80670195  0.94221647     0.07000
N918        N  0.47752010  0.78379284  0.55690742    -0.26000
N919        N  0.43852456  0.71663443  0.97793478    -0.25600
N920        N  0.05940808  0.78526315  0.98684812     0.01400
C921        C  0.99540466  0.68298283  0.58784536     0.42800
C922        C  0.03040985  0.69712759  0.92066156    -0.06900
N923        N  0.43645680  0.78125897  0.97719310    -0.25600
H924        H  0.41833633  0.68982723  0.94382590     0.07000
N925        N  0.01919678  0.69862209  0.57794799    -0.46800
H926        H  0.05407163  0.69357695  0.91813784     0.07000
C927        C  0.49919342  0.82215934  0.91028978     0.42700
C928        C  0.07469729  0.69873704  0.52849620    -0.06300
Co929      Co  0.03923288  0.75208873  0.96166535     0.73800
N930        N  0.48015304  0.69562210  0.91690391    -0.46500
C931        C  0.49160285  0.82069554  0.58682104     0.42900
N932        N  0.07693150  0.80649028  0.97635073    -0.46500
Co933      Co  0.46230906  0.74947742  0.95551370     0.73900
C934        C  0.41912837  0.80265848  0.96571641    -0.06900
C935        C  0.46892482  0.69640881  0.57433739    -0.06400
N936        N  0.05725039  0.78574954  0.51612460    -0.25900
N937        N  0.41821350  0.69607164  0.51742126    -0.46700
H938        H  0.44231368  0.80980000  0.57650754     0.06900
C939        C  0.02600774  0.80796281  0.92227642    -0.06800
Cl940      Cl  0.49778665  0.75117279  0.99708199    -0.49800
C941        C  0.00502113  0.68148275  0.90733561     0.42700
H942        H  0.07706567  0.81382012  0.54979253     0.06900
N943        N  0.47576459  0.80526921  0.91876874    -0.46500
C944        C  0.31585259  0.99946252  0.58846136     0.42500
N945        N  0.27906961  0.51229780  0.56076198     0.01400
C946        C  0.19415826  0.92391398  0.96758323    -0.06400
H947        H  0.30750861  0.92158119  0.94379549     0.06900
C948        C  0.30115378  0.53475740  0.92226151    -0.06800
Co949      Co  0.24857494  0.95986992  0.53329056     0.74200
N950        N  0.28154981  0.94215914  0.97846628    -0.26000
Co951      Co  0.24859838  0.96627555  0.95634893     0.74100
C952        C  0.31669265  0.00953195  0.90877331     0.42600
N953        N  0.27714257  0.56536903  0.98863629     0.01100
N954        N  0.28057348  0.99328389  0.93576899     0.01200
N955        N  0.19529566  0.92078138  0.51786545    -0.46800
H956        H  0.30870053  0.94965596  0.57771573     0.06900
N957        N  0.28163666  0.93955891  0.50774024     0.01400
N958        N  0.21540362  0.99091978  0.93504863     0.01200
C959        C  0.17909249  0.50435412  0.90684964     0.42800
N960        N  0.27718685  0.56306356  0.51790271    -0.25400
C961        C  0.19271724  0.96872054  0.57364951    -0.06300
N962        N  0.29985340  0.52299661  0.57879147    -0.46500
N963        N  0.19462215  0.98054975  0.91679429    -0.46800
C964        C  0.17710934  0.49425755  0.58645165     0.42600
N965        N  0.21677736  0.93818325  0.50763477     0.01400
N966        N  0.21238337  0.56019380  0.51742345    -0.25400
N967        N  0.28022849  0.98304032  0.55819927    -0.25900
N968        N  0.21232498  0.56264412  0.98815517     0.01100
H969        H  0.18454989  0.57852850  0.55176709     0.07000
H970        H  0.18687329  0.55402405  0.91834760     0.07000
N971        N  0.21665737  0.94047292  0.97833454    -0.26000
N972        N  0.27924285  0.52250486  0.93837257    -0.25600
N973        N  0.21398733  0.50986361  0.56028371     0.01400
C974        C  0.31689625  0.91078865  0.99313509     0.42800
C975        C  0.29875282  0.58066480  0.52889368    -0.06900
N976        N  0.21455749  0.52013894  0.93760763    -0.25600
H977        H  0.30497287  0.55841796  0.92011285     0.07000
N978        N  0.30220858  0.92072979  0.51742602    -0.46800
H979        H  0.30359855  0.58350101  0.55228864     0.07000
C980        C  0.17489923  0.58872901  0.00222835     0.42700
C981        C  0.30288439  0.97284637  0.57480131    -0.06300
Co982      Co  0.24567634  0.53675472  0.53965153     0.73800
N983        N  0.29773268  0.58392523  0.97863743    -0.46500
C984        C  0.17994066  0.91104498  0.99396322     0.42900
N985        N  0.19171582  0.51895138  0.57730827    -0.46500
Co986      Co  0.24579790  0.54311211  0.96284204     0.73900
C987        C  0.19234603  0.53072073  0.92073361    -0.06900
C988        C  0.30323500  0.92502650  0.96723687    -0.06400
N989        N  0.21516034  0.98061834  0.55788705    -0.25900
N990        N  0.30257442  0.98456378  0.91816178    -0.46700
H991        H  0.18859158  0.92127976  0.94429590     0.06900
C992        C  0.18950837  0.57583599  0.52837368    -0.06800
Cl993      Cl  0.24724176  0.50148172  0.99802402    -0.49800
C994        C  0.31240658  0.59451386  0.00265392     0.42700
H995        H  0.18838012  0.94515826  0.57622047     0.06900
N996        N  0.19046545  0.57973272  0.97815060    -0.46500
C997        C  0.36532360  0.84566416  0.51719164    -0.21200
C998        C  0.38310908  0.84129931  0.99183908    -0.09300
C999        C  0.37910351  0.86018810  0.96712924     0.29600
C1000       C  0.35762297  0.88270090  0.96783494    -0.21200
C1001       C  0.33977057  0.88701644  0.99311682    -0.09300
C1002       C  0.34377832  0.86818344  0.51786941     0.29600
F1003       F  0.32645577  0.87097089  0.54246931    -0.19800
H1004       H  0.36779953  0.83132812  0.53643861     0.17100
H1005       H  0.35525028  0.89701582  0.94857865     0.18000
F1006       F  0.39634758  0.85758199  0.94249223    -0.19800
C1007       C  0.37290905  0.65013904  0.52350193    -0.21200
C1008       C  0.38408971  0.65811773  0.99537395    -0.09300
C1009       C  0.37142599  0.64497599  0.96984953     0.29600
C1010       C  0.34820798  0.62439411  0.97266660    -0.21200
C1011       C  0.33705941  0.61641071  0.00080712    -0.09300
C1012       C  0.34961347  0.62965915  0.52630217     0.29600
F1013       F  0.33931213  0.62341495  0.55396776    -0.19800
H1014       H  0.38203801  0.65999839  0.54356258     0.18000
H1015       H  0.33894123  0.61464614  0.95261123     0.18000
F1016       F  0.38108304  0.65188524  0.94210605    -0.19800
C1017       C  0.11762666  0.86225447  0.02367637    -0.21200
C1018       C  0.10958026  0.84601351  0.99817824    -0.09300
C1019       C  0.12413191  0.85221053  0.97106554     0.29600
C1020       C  0.14656051  0.87376454  0.96977467    -0.21200
C1021       C  0.15504742  0.88951797  0.99536894    -0.09300
C1022       C  0.14014275  0.88381075  0.02237087     0.29600
F1023       F  0.14716903  0.89910330  0.04751513    -0.19800
H1024       H  0.10662076  0.85824255  0.04473457     0.18000
H1025       H  0.15773604  0.87757340  0.94876654     0.18000
F1026       F  0.11731454  0.83700687  0.94582393    -0.19800
C1027       C  0.12046890  0.64776373  0.97559183    -0.21200
C1028       C  0.10846420  0.65784157  0.00267611    -0.09300
C1029       C  0.11703352  0.64344468  0.52923278     0.29600
C1030       C  0.13796958  0.62054248  0.52866629    -0.21200
C1031       C  0.15086421  0.61127599  0.00179654    -0.09300
C1032       C  0.14139624  0.62466976  0.97505097     0.29600
F1033       F  0.15265395  0.61591783  0.94841125    -0.19800
H1034       H  0.11401164  0.65807963  0.95475793     0.18000
H1035       H  0.14430237  0.61039054  0.54957359     0.18000
F1036       F  0.10561311  0.65133472  0.55599770    -0.19800
C1037       C  0.37289651  0.53577038  0.85089456    -0.21200
C1038       C  0.38558305  0.00872468  0.84179590    -0.09300
C1039       C  0.37622921  0.98219997  0.85568727     0.29600
C1040       C  0.35422895  0.98287110  0.87772246    -0.21200
C1041       C  0.34105363  0.00988601  0.88642156    -0.09300
C1042       C  0.35087235  0.53647058  0.87286394     0.29600
F1043       F  0.33889191  0.56322748  0.88000439    -0.19800
H1044       H  0.37952232  0.55655567  0.84063028     0.18000
H1045       H  0.34733376  0.96207170  0.88785430     0.18000
F1046       F  0.38821419  0.95553866  0.84800700    -0.19800
C1047       C  0.12245942  0.52571796  0.84749310    -0.21200
C1048       C  0.11035224  0.99778081  0.83987644    -0.09300
C1049       C  0.12094701  0.97224998  0.85473623     0.29600
C1050       C  0.14303070  0.97481920  0.87660137    -0.21200
C1051       C  0.15499470  0.50273930  0.88428094    -0.09300
C1052       C  0.14449820  0.52826700  0.86936097     0.29600
F1053       F  0.15588856  0.55568344  0.87504514    -0.19800
H1054       H  0.11513068  0.54574276  0.83620317     0.18000
H1055       H  0.15089677  0.95476791  0.88747917     0.18000
F1056       F  0.11034293  0.94470456  0.84827585    -0.19800
C1057       C  0.12172294  0.51928632  0.64499623    -0.21200
C1058       C  0.10730705  0.49245227  0.65229515    -0.09300
C1059       C  0.11473516  0.96647134  0.63630665     0.29600
C1060       C  0.13702147  0.96732905  0.61452040    -0.21200
C1061       C  0.15216440  0.49400887  0.60805195    -0.09300
C1062       C  0.14380802  0.52017333  0.62312720     0.29600
F1063       F  0.15743486  0.54658072  0.61739531    -0.19800
H1064       H  0.11631441  0.53969711  0.65665583     0.18000
H1065       H  0.14250310  0.94696315  0.60286137     0.18000
F1066       F  0.10064612  0.94022424  0.64147463    -0.19800
C1067       C  0.36693910  0.52807060  0.64943047    -0.21200
C1068       C  0.38491276  0.50312308  0.65495120    -0.09300
C1069       C  0.38057039  0.97720068  0.63795996     0.29600
C1070       C  0.35830888  0.97622171  0.61613097    -0.21200
C1071       C  0.33995578  0.00103524  0.61093563    -0.09300
C1072       C  0.34462473  0.52708503  0.62773149     0.29600
F1073       F  0.32709467  0.55141404  0.62392652    -0.19800
H1074       H  0.36959475  0.54820302  0.66245308     0.18000
H1075       H  0.35553417  0.95600623  0.60327521     0.18000
F1076       F  0.39813466  0.95293993  0.64207929    -0.19800
C1077       C  0.47805327  0.64656840  0.87326372    -0.21200
C1078       C  0.00519924  0.65687462  0.88512673    -0.09300
C1079       C  0.03191801  0.64387452  0.87491387     0.29600
C1080       C  0.03131654  0.62207233  0.85266288    -0.21200
C1081       C  0.50423965  0.61252121  0.84012602    -0.09300
C1082       C  0.47747328  0.62462397  0.85111424     0.29600
F1083       F  0.45066474  0.61559426  0.84030480    -0.19800
H1084       H  0.45710236  0.65578932  0.88087014     0.18000
H1085       H  0.05228655  0.61296046  0.84507375     0.18000
F1086       F  0.05880801  0.65212831  0.88600089    -0.19800
C1087       C  0.02350333  0.85976538  0.87736457    -0.21200
C1088       C  0.49737160  0.84808193  0.88995163    -0.09300
C1089       C  0.46972412  0.86053799  0.88177494     0.29600
C1090       C  0.46834835  0.88281094  0.85996393    -0.21200
C1091       C  0.49444798  0.89316092  0.84607095    -0.09300
C1092       C  0.02216686  0.88205719  0.85575380     0.29600
F1093       F  0.04811257  0.89205748  0.84382297    -0.19800
H1094       H  0.04514102  0.85107236  0.88348118     0.18000
H1095       H  0.44674482  0.89137129  0.85350722     0.18000
F1096       F  0.44396968  0.85093633  0.89443006    -0.19800
C1097       C  0.46498467  0.85976927  0.61616861    -0.21200
C1098       C  0.49150553  0.84457178  0.60958633    -0.09300
C1099       C  0.01756376  0.85195527  0.62548422     0.29600
C1100       C  0.01667754  0.87332613  0.64810653    -0.21200
C1101       C  0.98995075  0.88791676  0.65532936    -0.09300
C1102       C  0.46413705  0.88131031  0.63864839     0.29600
F1103       F  0.43805102  0.89565448  0.64364928    -0.19800
H1104       H  0.44472197  0.85503701  0.60392608     0.18000
H1105       H  0.03697146  0.87811475  0.66031955     0.18000
F1106       F  0.04382702  0.83812815  0.61973899    -0.19800
C1107       C  0.02382587  0.64316231  0.61454780    -0.21200
C1108       C  0.99694403  0.65860224  0.61010239    -0.09300
C1109       C  0.47205573  0.65086861  0.62753574     0.29600
C1110       C  0.47408483  0.62812646  0.64866811    -0.21200
C1111       C  0.00093431  0.61271949  0.65329362    -0.09300
C1112       C  0.02589423  0.62040013  0.63583776     0.29600
F1113       F  0.05222991  0.60593424  0.63896622    -0.19800
H1114       H  0.04331072  0.64864420  0.60139075     0.18000
H1115       H  0.45456911  0.62298501  0.66190232     0.18000
F1116       F  0.44597550  0.66592595  0.62518511    -0.19800
C1117       C  0.50222726  0.08948012  0.17684175     0.42500
N1118       N  0.98807545  0.06223062  0.21363522     0.01400
C1119       C  0.57410177  0.46979511  0.30202359    -0.06400
H1120       H  0.57434906  0.44313162  0.18830605     0.06900
C1121       C  0.96401429  0.42301246  0.19530170    -0.06800
Co1122     Co  0.53933101  0.03486622  0.24603955     0.74200
N1123       N  0.55625512  0.47869366  0.21472508    -0.26000
Co1124     Co  0.53167506  0.45805950  0.24822925     0.74100
C1125       C  0.48962944  0.40941446  0.18042576     0.42600
N1126       N  0.93408391  0.49053345  0.21617160     0.01100
N1127       N  0.50505190  0.43655440  0.21675695     0.01200
N1128       N  0.57846391  0.01989905  0.29984368    -0.46800
H1129       H  0.55178752  0.07848298  0.18595227     0.06900
N1130       N  0.55916019  0.00791486  0.21380853     0.01400
N1131       N  0.50626010  0.43876555  0.28190083     0.01200
C1132       C  0.99286658  0.41418725  0.32067758     0.42800
N1133       N  0.93690351  0.01982782  0.21545347    -0.25400
C1134       C  0.52990157  0.07701764  0.30058343    -0.06300
N1135       N  0.97818803  0.08014957  0.19241861    -0.46500
N1136       N  0.51658736  0.42251801  0.30418521    -0.46800
C1137       C  0.00420777  0.09066247  0.31529959     0.42600
N1138       N  0.56038716  0.00970519  0.27886376     0.01400
N1139       N  0.93757803  0.02171928  0.28022847    -0.25400
N1140       N  0.51733265  0.05941082  0.21331476    -0.25900
N1141       N  0.93470918  0.49247039  0.28125396     0.01100
H1142       H  0.91900328  0.05732116  0.30642216     0.07000
H1143       H  0.94315401  0.42467120  0.31216759     0.07000
N1144       N  0.55752269  0.48050839  0.27959925    -0.26000
N1145       N  0.97581131  0.43939019  0.21733607    -0.25600
N1146       N  0.98899350  0.06369563  0.27876367     0.01400
C1147       C  0.58534754  0.99221735  0.17697765     0.42800
C1148       C  0.92061312  0.03046980  0.19281125    -0.06900
N1149       N  0.97699010  0.44152365  0.28244837    -0.25600
H1150       H  0.94043774  0.42074837  0.19089968     0.07000
N1151       N  0.57651141  0.01690945  0.19174688    -0.46800
H1152       H  0.91827116  0.05372157  0.18695353     0.07000
C1153       C  0.90780495  0.50826836  0.31742273     0.42700
C1154       C  0.52835554  0.07574165  0.19081595    -0.06300
Co1155     Co  0.96248000  0.04240078  0.24700135     0.73800
N1156       N  0.91648812  0.48020912  0.19481547    -0.46500
C1157       C  0.58797623  0.49610113  0.31555453     0.42900
N1158       N  0.97967869  0.08145341  0.30038667    -0.46500
Co1159     Co  0.95483409  0.46551115  0.24935151     0.73900
C1160       C  0.96641100  0.42666928  0.30616801    -0.06900
C1161       C  0.57202654  0.46673392  0.19238671    -0.06400
N1162       N  0.51826005  0.06078937  0.27833662    -0.25900
N1163       N  0.51424376  0.41871013  0.19517020    -0.46700
H1164       H  0.57638390  0.44646024  0.30740177     0.06900
C1165       C  0.92137416  0.03372798  0.30220324    -0.06800
Cl1166     Cl  0.49707152  0.00021980  0.24764055    -0.49800
C1167       C  0.90726733  0.00412516  0.17907401     0.42700
H1168       H  0.55341941  0.07917538  0.30544569     0.06900
N1169       N  0.91697847  0.48350246  0.30304664    -0.46500
C1170       C  0.58772263  0.18352871  0.50284137     0.42500
N1171       N  0.56106464  0.22024501  0.48764072     0.01400
C1172       C  0.96587774  0.30570492  0.07346227    -0.06400
H1173       H  0.94569052  0.19055104  0.07671221     0.06900
C1174       C  0.92158867  0.19446129  0.46722633    -0.06800
Co1175     Co  0.53330497  0.25283678  0.03863345     0.74200
N1176       N  0.97940483  0.21887233  0.05771342    -0.26000
Co1177     Co  0.95637741  0.25035741  0.03249658     0.74100
C1178       C  0.90805535  0.18078495  0.49359504     0.42600
N1179       N  0.98906635  0.21755299  0.43460513     0.01100
N1180       N  0.93632102  0.21695481  0.00724088     0.01200
N1181       N  0.51618977  0.30628330  0.07719147    -0.46800
H1182       H  0.57689158  0.19444893  0.05204808     0.06900
N1183       N  0.50870818  0.21966715  0.06012737     0.01400
N1184       N  0.93417703  0.28181720  0.00649375     0.01200
C1185       C  0.90545337  0.31700246  0.49152820     0.42800
N1186       N  0.51832311  0.21889685  0.43703445    -0.25400
C1187       C  0.57373694  0.30848233  0.02655398    -0.06300
N1188       N  0.57838981  0.19828070  0.47825987    -0.46500
N1189       N  0.91564096  0.30270542  0.01600101    -0.46800
C1190       C  0.58673438  0.32225051  0.49996905     0.42600
N1191       N  0.50684384  0.28473143  0.05933298     0.01400
N1192       N  0.51603306  0.28399991  0.43709602    -0.25400
N1193       N  0.55863147  0.22089810  0.01689005    -0.25900
N1194       N  0.98673548  0.28295599  0.43468103     0.01100
H1195       H  0.54912228  0.31459015  0.42046306     0.07000
H1196       H  0.91586611  0.30666371  0.44223808     0.07000
N1197       N  0.97753501  0.28377193  0.05693150    -0.26000
N1198       N  0.93853678  0.21662236  0.47795721    -0.25600
N1199       N  0.55941013  0.28525777  0.48685836     0.01400
C1200       C  0.49544061  0.18294491  0.08783378     0.42800
C1201       C  0.53041756  0.19710890  0.42068058    -0.06900
N1202       N  0.93646709  0.28124204  0.47721662    -0.25600
H1203       H  0.91832644  0.18983050  0.44384994     0.07000
N1204       N  0.51922829  0.19859573  0.07794546    -0.46800
H1205       H  0.55407914  0.19355799  0.41815499     0.07000
C1206       C  0.99920650  0.32213863  0.41028974     0.42700
C1207       C  0.57471731  0.19872926  0.02850332    -0.06300
Co1208     Co  0.53924009  0.25207814  0.46167838     0.73800
N1209       N  0.98016077  0.19560354  0.41692478    -0.46500
C1210       C  0.99161807  0.32067158  0.08684797     0.42900
N1211       N  0.57691956  0.30649440  0.47635756    -0.46500
Co1212     Co  0.96231918  0.24946362  0.45553296     0.73900
C1213       C  0.91912653  0.30262992  0.46573869    -0.06900
C1214       C  0.96895650  0.19637231  0.07433512    -0.06400
N1215       N  0.55725515  0.28574098  0.01613833    -0.25900
N1216       N  0.91822272  0.19606104  0.01744373    -0.46700
H1217       H  0.94232857  0.30977487  0.07653820     0.06900
C1218       C  0.52601874  0.30794137  0.42227863    -0.06800
Cl1219     Cl  0.99779960  0.25116163  0.49709865    -0.49800
C1220       C  0.50502827  0.18146197  0.40735753     0.42700
H1221       H  0.57706138  0.31381872  0.04980429     0.06900
N1222       N  0.97577496  0.30525409  0.41877558    -0.46500
C1223       C  0.81588848  0.49944892  0.08841925     0.42500
N1224       N  0.77904949  0.01231273  0.06077954     0.01400
C1225       C  0.69415219  0.42390474  0.46758167    -0.06400
H1226       H  0.80748057  0.42153048  0.44378886     0.06900
C1227       C  0.80115972  0.03478006  0.42227919    -0.06800
Co1228     Co  0.74857679  0.45985843  0.03328470     0.74200
N1229       N  0.78154158  0.44213471  0.47845876    -0.26000
Co1230     Co  0.74859235  0.46625909  0.45634158     0.74100
C1231       C  0.81668421  0.50951040  0.40875896     0.42600
N1232       N  0.77713778  0.06538423  0.48865890     0.01100
N1233       N  0.78056744  0.49326460  0.43575827     0.01200
N1234       N  0.69529788  0.42076786  0.01786580    -0.46800
H1235       H  0.80872587  0.44964276  0.07768121     0.06900
N1236       N  0.78163171  0.43953749  0.00773783     0.01400
N1237       N  0.71539760  0.49090518  0.43503957     0.01200
C1238       C  0.67905664  0.00437498  0.40689612     0.42800
N1239       N  0.77717154  0.06308070  0.01792132    -0.25400
C1240       C  0.69272128  0.46872209  0.07364605    -0.06300
N1241       N  0.79981735  0.02301263  0.07882596    -0.46500
N1242       N  0.69462004  0.48053540  0.41677885    -0.46800
C1243       C  0.67709544  0.99425194  0.08645243     0.42600
N1244       N  0.71677697  0.43817098  0.00763290     0.01400
N1245       N  0.71237040  0.06019989  0.01743215    -0.25400
N1246       N  0.78023944  0.48302743  0.05818421    -0.25900
N1247       N  0.71232628  0.06265723  0.48817228     0.01100
H1248       H  0.68452479  0.07853673  0.05176779     0.07000
H1249       H  0.68688001  0.05405038  0.41839051     0.07000
N1250       N  0.71665199  0.44046287  0.47833144    -0.26000
N1251       N  0.77924562  0.02252735  0.43838681    -0.25600
N1252       N  0.71397217  0.00986714  0.06028847     0.01400
C1253       C  0.81686768  0.41074024  0.49312977     0.42800
C1254       C  0.79872925  0.08069057  0.02891526    -0.06900
N1255       N  0.71455413  0.02016105  0.43762765    -0.25600
H1256       H  0.80498440  0.05844035  0.42013580     0.07000
N1257       N  0.80219191  0.42069719  0.01742662    -0.46800
H1258       H  0.80357082  0.08353086  0.05231072     0.07000
C1259       C  0.67489780  0.08873807  0.50223716     0.42700
C1260       C  0.80290662  0.47283302  0.07477168    -0.06300
Co1261     Co  0.74566044  0.03676528  0.03966387     0.73800
N1262       N  0.79772202  0.08394760  0.47866309    -0.46500
C1263       C  0.67993759  0.41103525  0.49396268     0.42900
N1264       N  0.69169704  0.01894943  0.07731105    -0.46500
Co1265     Co  0.74579843  0.04313023  0.46285967     0.73900
C1266       C  0.69232768  0.03074302  0.42077299    -0.06900
C1267       C  0.80321405  0.42498496  0.46723018    -0.06400
N1268       N  0.71516585  0.48061450  0.05788110    -0.25900
N1269       N  0.80256678  0.48454280  0.41815021    -0.46700
H1270       H  0.68858539  0.42127038  0.44429446     0.06900
C1271       C  0.68948988  0.07583913  0.02837616    -0.06800
Cl1272     Cl  0.74723987  0.00149720  0.49803596    -0.49800
C1273       C  0.81238618  0.09454297  0.50268173     0.42700
H1274       H  0.68837996  0.44516086  0.07621991     0.06900
N1275       N  0.69047070  0.07974606  0.47816356    -0.46500
C1276       C  0.86531532  0.34563539  0.01721863    -0.21200
C1277       C  0.88308661  0.34125464  0.49185363    -0.09300
C1278       C  0.87906589  0.36012636  0.46713309     0.29600
C1279       C  0.85757982  0.38263316  0.46783132    -0.21200
C1280       C  0.83973592  0.38696169  0.49311615    -0.09300
C1281       C  0.84376530  0.36815141  0.01789031     0.29600
F1282       F  0.82645864  0.37095832  0.04249926    -0.19800
H1283       H  0.86780760  0.33131707  0.03647667     0.17100
H1284       H  0.85519914  0.39693607  0.44856720     0.18000
F1285       F  0.89630246  0.35751219  0.44249193    -0.19800
C1286       C  0.87285469  0.15019672  0.02352306    -0.21200
C1287       C  0.88407408  0.15813610  0.49540165    -0.09300
C1288       C  0.87143112  0.14497123  0.46987937     0.29600
C1289       C  0.84820824  0.12439609  0.47269685    -0.21200
C1290       C  0.83703408  0.11644315  0.50083560    -0.09300
C1291       C  0.84955120  0.12972618  0.02632231     0.29600
F1292       F  0.83920425  0.12353072  0.05398198    -0.19800
H1293       H  0.88195670  0.16008568  0.04358131     0.18000
H1294       H  0.83896099  0.11462579  0.45264336     0.18000
F1295       F  0.88111790  0.15184608  0.44213776    -0.19800
C1296       C  0.61765027  0.36222374  0.52369269    -0.21200
C1297       C  0.60955451  0.34603015  0.49818028    -0.09300
C1298       C  0.62405754  0.35227277  0.47105209     0.29600
C1299       C  0.64649545  0.37381683  0.46976173    -0.21200
C1300       C  0.65503636  0.38951791  0.49537070    -0.09300
C1301       C  0.64017346  0.38377127  0.52238724     0.29600
F1302       F  0.64725080  0.39901252  0.54754833    -0.19800
H1303       H  0.60668199  0.35817790  0.54476384     0.18000
H1304       H  0.65763339  0.37765978  0.44874004     0.18000
F1305       F  0.61718139  0.33712549  0.44579231    -0.19800
C1306       C  0.62058851  0.14787205  0.47560536    -0.21200
C1307       C  0.60845700  0.15783118  0.50267510    -0.09300
C1308       C  0.61686326  0.14328969  0.02919651     0.29600
C1309       C  0.63780830  0.12039442  0.02863061    -0.21200
C1310       C  0.65085884  0.11127597  0.50179581    -0.09300
C1311       C  0.64151640  0.12478272  0.47506371     0.29600
F1312       F  0.65290703  0.11615564  0.44843989    -0.19800
H1313       H  0.61423673  0.15828316  0.45478653     0.18000
H1314       H  0.64402472  0.11012940  0.04951810     0.18000
F1315       F  0.60526408  0.15102656  0.05593019    -0.19800
C1316       C  0.87286021  0.03578786  0.35086678    -0.21200
C1317       C  0.88558780  0.50870102  0.34179734    -0.09300
C1318       C  0.87621028  0.48217280  0.35566610     0.29600
C1319       C  0.85420514  0.48284424  0.37769594    -0.21200
C1320       C  0.84104864  0.50986277  0.38641196    -0.09300
C1321       C  0.85084050  0.03648883  0.37284110     0.29600
F1322       F  0.83882838  0.06323954  0.37995162    -0.19800
H1323       H  0.87945969  0.05656813  0.34057532     0.18000
H1324       H  0.84729097  0.46204225  0.38780960     0.18000
F1325       F  0.88817468  0.45550761  0.34796736    -0.19800
C1326       C  0.62187113  0.02574321  0.34803931    -0.21200
C1327       C  0.61037111  0.49782796  0.33985351    -0.09300
C1328       C  0.62061221  0.47234441  0.35504036     0.29600
C1329       C  0.64271430  0.47489191  0.37689171    -0.21200
C1330       C  0.65493028  0.00273384  0.38434670    -0.09300
C1331       C  0.64388846  0.02832322  0.36992742     0.29600
F1332       F  0.65467049  0.05586283  0.37615760    -0.19800
H1333       H  0.61410758  0.04582690  0.33715148     0.18000
H1334       H  0.65030077  0.45488070  0.38803955     0.18000
F1335       F  0.60959797  0.44487328  0.34895384    -0.19800
C1336       C  0.62167057  0.01927695  0.14496086    -0.21200
C1337       C  0.60728370  0.99243401  0.15228424    -0.09300
C1338       C  0.61472688  0.46649510  0.13629220     0.29600
C1339       C  0.63701131  0.46734948  0.11450348    -0.21200
C1340       C  0.65214491  0.99399758  0.10804584    -0.09300
C1341       C  0.64375713  0.02016741  0.12309397     0.29600
F1342       F  0.65735384  0.04658482  0.11733718    -0.19800
H1343       H  0.61623856  0.03969318  0.15659999     0.18000
H1344       H  0.64246905  0.44698920  0.10282316     0.18000
F1345       F  0.60060922  0.44025867  0.14143727    -0.19800
C1346       C  0.86688747  0.02809290  0.14947776    -0.21200
C1347       C  0.88486243  0.00314600  0.15499623    -0.09300
C1348       C  0.88062099  0.47718490  0.13790685     0.29600
C1349       C  0.85836191  0.47620930  0.11607288    -0.21200
C1350       C  0.84000146  0.50102026  0.11088566    -0.09300
C1351       C  0.84456866  0.02710355  0.12778340     0.29600
F1352       F  0.82703691  0.05143129  0.12397702    -0.19800
H1353       H  0.86954827  0.04822755  0.16249602     0.18000
H1354       H  0.85559222  0.45599813  0.10320913     0.18000
F1355       F  0.89819283  0.45292836  0.14201892    -0.19800
C1356       C  0.97806220  0.14656207  0.37326772    -0.21200
C1357       C  0.50520624  0.15685258  0.38514870    -0.09300
C1358       C  0.53192396  0.14383582  0.37495341     0.29600
C1359       C  0.53132455  0.12203517  0.35270020    -0.21200
C1360       C  0.00425050  0.11250160  0.34014421    -0.09300
C1361       C  0.97748400  0.12461943  0.35111620     0.29600
F1362       F  0.95067714  0.11560749  0.34028763    -0.19800
H1363       H  0.95711173  0.15579531  0.38086035     0.18000
H1364       H  0.55229385  0.11290975  0.34512503     0.18000
F1365       F  0.55881099  0.15207048  0.38606171    -0.19800
C1366       C  0.52352283  0.35973298  0.37735168    -0.21200
C1367       C  0.99738983  0.34805842  0.38994586    -0.09300
C1368       C  0.96974532  0.36052296  0.38177364     0.29600
C1369       C  0.96837224  0.38279513  0.35996124    -0.21200
C1370       C  0.99447192  0.39313819  0.34606242    -0.09300
C1371       C  0.52218920  0.38202515  0.35573974     0.29600
F1372       F  0.54813542  0.39201751  0.34380342    -0.19800
H1373       H  0.54515898  0.35103360  0.38346471     0.18000
H1374       H  0.94676999  0.39136285  0.35351034     0.18000
F1375       F  0.94399093  0.35093242  0.39443719    -0.19800
C1376       C  0.96500779  0.35976336  0.11617670    -0.21200
C1377       C  0.99152221  0.34454719  0.10961270    -0.09300
C1378       C  0.51757595  0.35191280  0.12552676     0.29600
C1379       C  0.51669088  0.37328616  0.14814626    -0.21200
C1380       C  0.48997030  0.38789700  0.15534935    -0.09300
C1381       C  0.96416192  0.38130792  0.13865287     0.29600
F1382       F  0.93808466  0.39567539  0.14363312    -0.19800
H1383       H  0.94475000  0.35504471  0.10392064     0.18000
H1384       H  0.53698013  0.37806128  0.16037228     0.18000
F1385       F  0.54383276  0.33806598  0.11979967    -0.19800
C1386       C  0.52386474  0.14312207  0.11453362    -0.21200
C1387       C  0.49698375  0.15856489  0.11008984    -0.09300
C1388       C  0.97209787  0.15083957  0.12752913     0.29600
C1389       C  0.97412631  0.12810249  0.14866473    -0.21200
C1390       C  0.50097342  0.11269322  0.15329036    -0.09300
C1391       C  0.52593338  0.12036560  0.13583050     0.29600
F1392       F  0.55226851  0.10589920  0.13896373    -0.19800
H1393       H  0.54334814  0.14859916  0.10137239     0.18000
H1394       H  0.95461140  0.12296846  0.16190300     0.18000
F1395       F  0.94602098  0.16590310  0.12518378    -0.19800
C1396       C  0.50223058  0.08948326  0.67684198     0.42500
N1397       N  0.98807838  0.06223219  0.71363420     0.01400
C1398       C  0.57410762  0.46979926  0.80202490    -0.06400
H1399       H  0.57435376  0.44313190  0.68830926     0.06900
C1400       C  0.96401938  0.42301242  0.69530338    -0.06800
Co1401     Co  0.53933356  0.03486847  0.74603968     0.74200
N1402       N  0.55625906  0.47869426  0.71472739    -0.26000
Co1403     Co  0.53167885  0.45806057  0.74823194     0.74100
C1404       C  0.48963474  0.40941433  0.68042785     0.42600
N1405       N  0.93408791  0.49053349  0.71617042     0.01100
N1406       N  0.50505658  0.43655419  0.71675946     0.01200
N1407       N  0.57846831  0.01990402  0.79984182    -0.46800
H1408       H  0.55179088  0.07848635  0.68595321     0.06900
N1409       N  0.55916338  0.00791631  0.71381002     0.01400
N1410       N  0.50626298  0.43876759  0.78190392     0.01200
C1411       C  0.99286756  0.41419141  0.82068167     0.42800
N1412       N  0.93690745  0.01982873  0.71545204    -0.25400
C1413       C  0.52990322  0.07702176  0.80058169    -0.06300
N1414       N  0.97819114  0.08015194  0.69241820    -0.46500
N1415       N  0.51658933  0.42252141  0.80418987    -0.46800
C1416       C  0.00420900  0.09066719  0.81529659     0.42600
N1417       N  0.56038928  0.00970872  0.77886478     0.01400
N1418       N  0.93758019  0.02172171  0.78022741    -0.25400
N1419       N  0.51733571  0.05941260  0.71331413    -0.25900
N1420       N  0.93471140  0.49247150  0.78125301     0.01100
H1421       H  0.91900511  0.05732378  0.80642077     0.07000
H1422       H  0.94315545  0.42467483  0.81216876     0.07000
N1423       N  0.55752564  0.48051095  0.77960169    -0.26000
N1424       N  0.97581596  0.43939027  0.71733777    -0.25600
N1425       N  0.98899540  0.06369830  0.77876215     0.01400
C1426       C  0.58535109  0.99221826  0.67697978     0.42800
C1427       C  0.92061829  0.03047031  0.69280876    -0.06900
N1428       N  0.97699280  0.44152557  0.78245008    -0.25600
H1429       H  0.94044290  0.42074871  0.69090088     0.07000
N1430       N  0.57651424  0.01691063  0.69174803    -0.46800
H1431       H  0.91827682  0.05372199  0.68695049     0.07000
C1432       C  0.90780633  0.50826932  0.81742133     0.42700
C1433       C  0.52835882  0.07574440  0.69081609    -0.06300
Co1434     Co  0.96248272  0.04240254  0.74700014     0.73800
N1435       N  0.91649293  0.48020897  0.69481364    -0.46500
C1436       C  0.58798129  0.49610661  0.81555364     0.42900
N1437       N  0.97968015  0.08145708  0.80038405    -0.46500
Co1438     Co  0.95483751  0.46551190  0.74935173     0.73900
C1439       C  0.96641269  0.42667243  0.80617002    -0.06900
C1440       C  0.57203069  0.46673426  0.69238932    -0.06400
N1441       N  0.51826209  0.06079232  0.77833560    -0.25900
N1442       N  0.51424886  0.41870975  0.69517292    -0.46700
H1443       H  0.57639873  0.44646430  0.80739955     0.06900
C1444       C  0.92137611  0.03373056  0.80220207    -0.06800
Cl1445     Cl  0.49707472  0.00022172  0.74764115    -0.49800
C1446       C  0.90727327  0.00412550  0.67907111     0.42700
H1447       H  0.55342101  0.07918014  0.80544394     0.06900
N1448       N  0.91698041  0.48350355  0.80304542    -0.46500
C1449       C  0.58771828  0.18352482  0.00283863     0.42500
N1450       N  0.56106252  0.22024382  0.98764034     0.01400
C1451       C  0.96587986  0.30570661  0.57346269    -0.06400
H1452       H  0.94569184  0.19055353  0.57671132     0.06900
C1453       C  0.92158848  0.19445978  0.96722576    -0.06800
Co1454     Co  0.53330614  0.25283913  0.53863238     0.74200
N1455       N  0.97940613  0.21887484  0.55771275    -0.26000
Co1456     Co  0.95637874  0.25035976  0.53249563     0.74100
C1457       C  0.90805623  0.18078185  0.99359420     0.42600
N1458       N  0.98906467  0.21755460  0.93460468     0.01100
N1459       N  0.93632166  0.21695698  0.50724087     0.01200
N1460       N  0.51619182  0.30628459  0.57719101    -0.46800
H1461       H  0.57689393  0.19445445  0.55205004     0.06900
N1462       N  0.50870943  0.21966974  0.56012680     0.01400
N1463       N  0.93417856  0.28181915  0.50649192     0.01200
C1464       C  0.90545249  0.31700130  0.99153085     0.42800
N1465       N  0.51832142  0.21889872  0.93703405    -0.25400
C1466       C  0.57373535  0.30848624  0.52655114    -0.06300
N1467       N  0.57838607  0.19827879  0.97825811    -0.46500
N1468       N  0.91564195  0.30270716  0.51599866    -0.46800
C1469       C  0.58673668  0.32224664  0.99997222     0.42600
N1470       N  0.50684539  0.28473369  0.55933165     0.01400
N1471       N  0.51603118  0.28400155  0.93709832    -0.25400
N1472       N  0.55863316  0.22090053  0.51689032    -0.25900
N1473       N  0.98673352  0.28295732  0.93468303     0.01100
H1474       H  0.54912022  0.31459239  0.92046621     0.07000
H1475       H  0.91586515  0.30666312  0.94224046     0.07000
N1476       N  0.97753665  0.28377439  0.55693051    -0.26000
N1477       N  0.93853586  0.21662121  0.97795718    -0.25600
N1478       N  0.55940916  0.28525672  0.98686044     0.01400
C1479       C  0.49544192  0.18294744  0.58783321     0.42800
C1480       C  0.53041621  0.19711222  0.92067869    -0.06900
N1481       N  0.93646544  0.28124078  0.97721850    -0.25600
H1482       H  0.91832584  0.18982977  0.94384928     0.07000
N1483       N  0.51922955  0.19859837  0.57794490    -0.46800
H1484       H  0.55407783  0.19356210  0.91815278     0.07000
C1485       C  0.99920428  0.32214088  0.91029274     0.42700
C1486       C  0.57472005  0.19873334  0.52850500    -0.06300
Co1487     Co  0.53923837  0.25207856  0.96167938     0.73800
N1488       N  0.98015934  0.19560643  0.91692271    -0.46500
C1489       C  0.99162061  0.32067245  0.58684879     0.42900
N1490       N  0.57692010  0.30649237  0.97636027    -0.46500
Co1491     Co  0.96231755  0.24946376  0.95553386     0.73900
C1492       C  0.91912518  0.30262896  0.96574102    -0.06900
C1493       C  0.96895783  0.19637481  0.57433443    -0.06400
N1494       N  0.55725556  0.28574317  0.51613620    -0.25900
N1495       N  0.91822231  0.19606433  0.51744423    -0.46700
H1496       H  0.94233075  0.30977623  0.57653967     0.06900
C1497       C  0.52601668  0.30794357  0.92228164    -0.06800
Cl1498     Cl  0.99779813  0.25116061  0.99709969    -0.49800
C1499       C  0.50502716  0.18146603  0.90735451     0.42700
H1500       H  0.57705852  0.31382420  0.54980127     0.06900
N1501       N  0.97577291  0.30525569  0.91877794    -0.46500
C1502       C  0.81589177  0.49944757  0.58841816     0.42500
N1503       N  0.77905175  0.01231149  0.56077980     0.01400
C1504       C  0.69415502  0.42389991  0.96758281    -0.06400
H1505       H  0.80748330  0.42153007  0.94379256     0.06900
C1506       C  0.80116069  0.03477951  0.92227899    -0.06800
Co1507     Co  0.74857733  0.45985842  0.53328397     0.74200
N1508       N  0.78154323  0.44213406  0.97846140    -0.26000
Co1509     Co  0.74859445  0.46625615  0.95634216     0.74100
C1510       C  0.81668594  0.50950893  0.90875874     0.42600
N1511       N  0.77713555  0.06538423  0.98865709     0.01100
N1512       N  0.78056978  0.49326220  0.93575873     0.01200
N1513       N  0.69529620  0.42076997  0.51786447    -0.46800
H1514       H  0.80872902  0.44964146  0.57767923     0.06900
N1515       N  0.78163092  0.43953747  0.50773519     0.01400
N1516       N  0.71540032  0.49089981  0.93503734     0.01200
C1517       C  0.67906753  0.00436977  0.90688613     0.42800
N1518       N  0.77717419  0.06308010  0.51792311    -0.25400
C1519       C  0.69272248  0.46872200  0.57364626    -0.06300
N1520       N  0.79982035  0.02301120  0.57882545    -0.46500
N1521       N  0.69462605  0.48052846  0.91677349    -0.46800
C1522       C  0.67709712  0.99425245  0.58645325     0.42600
N1523       N  0.71677593  0.43817264  0.50763201     0.01400
N1524       N  0.71237335  0.06020166  0.51743571    -0.25400
N1525       N  0.78024148  0.48302626  0.55818379    -0.25900
N1526       N  0.71232379  0.06265450  0.98816859     0.01100
H1527       H  0.68452946  0.07853887  0.55177253     0.07000
H1528       H  0.68688039  0.05404444  0.91838244     0.07000
N1529       N  0.71665385  0.44045972  0.97833220    -0.26000
N1530       N  0.77924708  0.02252605  0.93838672    -0.25600
N1531       N  0.71397442  0.00986732  0.56029003     0.01400
C1532       C  0.81686968  0.41074115  0.99313393     0.42800
C1533       C  0.79873192  0.08068977  0.52891724    -0.06900
N1534       N  0.71455685  0.02015685  0.93762402    -0.25600
H1535       H  0.80498354  0.05844000  0.92013453     0.07000
N1536       N  0.80219081  0.42069634  0.51742296    -0.46800
H1537       H  0.80357320  0.08353006  0.55231277     0.07000
C1538       C  0.67489347  0.08873385  0.00223198     0.42700
C1539       C  0.80290940  0.47283172  0.57477044    -0.06300
Co1540     Co  0.74566293  0.03676516  0.53966567     0.73800
N1541       N  0.79772016  0.08394712  0.97866102    -0.46500
C1542       C  0.67994036  0.41103107  0.99396426     0.42900
N1543       N  0.69169939  0.01894979  0.57731261    -0.46500
Co1544     Co  0.74579807  0.04312813  0.96285763     0.73900
C1545       C  0.69233353  0.03073800  0.92076508    -0.06900
C1546       C  0.80321635  0.42498484  0.96723376    -0.06400
N1547       N  0.71516745  0.48061438  0.55788187    -0.25900
N1548       N  0.80256949  0.48454094  0.91815078    -0.46700
H1549       H  0.68858898  0.42126393  0.94429561     0.06900
C1550       C  0.68949394  0.07584180  0.52838073    -0.06800
Cl1551     Cl  0.74723958  0.00149619  0.99803516    -0.49800
C1552       C  0.81238401  0.09454303  0.00267957     0.42700
H1553       H  0.68838035  0.44516079  0.57621903     0.06900
N1554       N  0.69046747  0.07974197  0.97815891    -0.46500
C1555       C  0.86531004  0.34563119  0.51721257    -0.21200
C1556       C  0.88308688  0.34125440  0.99185692    -0.09300
C1557       C  0.87906216  0.36012255  0.96713430     0.29600
C1558       C  0.85757710  0.38263004  0.96783327    -0.21200
C1559       C  0.83973787  0.38696274  0.99312064    -0.09300
C1560       C  0.84375922  0.36814652  0.51788361     0.29600
F1561       F  0.82644764  0.37094898  0.54248962    -0.19800
H1562       H  0.86779906  0.33130990  0.53646883     0.17100
H1563       H  0.85519339  0.39692990  0.94856730     0.18000
F1564       F  0.89629338  0.35750413  0.94248989    -0.19800
C1565       C  0.87285905  0.15019467  0.52352504    -0.21200
C1566       C  0.88407505  0.15813283  0.99540032    -0.09300
C1567       C  0.87143720  0.14496277  0.96987816     0.29600
C1568       C  0.84821311  0.12438874  0.97269517    -0.21200
C1569       C  0.83703321  0.11644176  0.00083337    -0.09300
C1570       C  0.84955645  0.12972307  0.52632479     0.29600
F1571       F  0.83921530  0.12352159  0.55398529    -0.19800
H1572       H  0.88196497  0.16007978  0.54358341     0.18000
H1573       H  0.83896966  0.11461439  0.95264190     0.18000
F1574       F  0.88113077  0.15183088  0.94213723    -0.19800
C1575       C  0.61765448  0.36221844  0.02369593    -0.21200
C1576       C  0.60955842  0.34602473  0.99818371    -0.09300
C1577       C  0.62406209  0.35226625  0.97105561     0.29600
C1578       C  0.64649977  0.37381048  0.96976475    -0.21200
C1579       C  0.65504018  0.38951257  0.99537320    -0.09300
C1580       C  0.64017770  0.38376596  0.02239006     0.29600
F1581       F  0.64725521  0.39900745  0.04755097    -0.19800
H1582       H  0.60668609  0.35817301  0.04476709     0.18000
H1583       H  0.65763774  0.37765299  0.94874299     0.18000
F1584       F  0.61718660  0.33711787  0.94579632    -0.19800
C1585       C  0.62058755  0.14787189  0.97560120    -0.21200
C1586       C  0.60845104  0.15782583  0.00267067    -0.09300
C1587       C  0.61687528  0.14330128  0.52920249     0.29600
C1588       C  0.63781999  0.12040581  0.52863714    -0.21200
C1589       C  0.65085318  0.11127061  0.00179007    -0.09300
C1590       C  0.64151554  0.12478253  0.97505888     0.29600
F1591       F  0.65291161  0.11616108  0.94843558    -0.19800
H1592       H  0.61424012  0.15828755  0.95478333     0.18000
H1593       H  0.64404102  0.11014558  0.54952562     0.18000
F1594       F  0.60528295  0.15104479  0.55593719    -0.19800
C1595       C  0.87286651  0.03579033  0.85087120    -0.21200
C1596       C  0.88558916  0.50870137  0.84179610    -0.09300
C1597       C  0.87620750  0.48217214  0.85566025     0.29600
C1598       C  0.85420264  0.48284302  0.87769035    -0.21200
C1599       C  0.84105023  0.50986192  0.88641133    -0.09300
C1600       C  0.85084704  0.03649070  0.87284596     0.29600
F1601       F  0.83883959  0.06324209  0.87996183    -0.19800
H1602       H  0.87946922  0.05657144  0.84058345     0.18000
H1603       H  0.84728531  0.46204020  0.88780015     0.18000
F1604       F  0.88816721  0.45550632  0.84795644    -0.19800
C1605       C  0.62198126  0.02573679  0.84793961    -0.21200
C1606       C  0.61038223  0.49783389  0.83984630    -0.09300
C1607       C  0.62053623  0.47236334  0.85511346     0.29600
C1608       C  0.64264382  0.47490548  0.87696038    -0.21200
C1609       C  0.65494676  0.00273253  0.88433317    -0.09300
C1610       C  0.64400340  0.02831183  0.86982273     0.29600
F1611       F  0.65489641  0.05583113  0.87595177    -0.19800
H1612       H  0.61429597  0.04581096  0.83697901     0.18000
H1613       H  0.65016102  0.45490561  0.88817553     0.18000
F1614       F  0.60941983  0.44491251  0.84911977    -0.19800
C1615       C  0.62167227  0.01927802  0.64496119    -0.21200
C1616       C  0.60728644  0.99243487  0.65228579    -0.09300
C1617       C  0.61472875  0.46649522  0.63629315     0.29600
C1618       C  0.63701296  0.46734946  0.61450423    -0.21200
C1619       C  0.65214654  0.99399827  0.60804648    -0.09300
C1620       C  0.64375815  0.02016844  0.62309366     0.29600
F1621       F  0.65735350  0.04658620  0.61733522    -0.19800
H1622       H  0.61623992  0.03969447  0.65659978     0.18000
H1623       H  0.64247085  0.44698904  0.60282421     0.18000
F1624       F  0.60061094  0.44025892  0.64143846    -0.19800
C1625       C  0.86689574  0.02809408  0.64947187    -0.21200
C1626       C  0.88486880  0.00314626  0.65499266    -0.09300
C1627       C  0.88062540  0.47718417  0.63790502     0.29600
C1628       C  0.85836570  0.47620820  0.61607160    -0.21200
C1629       C  0.84000589  0.50101943  0.61088355    -0.09300
C1630       C  0.84457645  0.02710439  0.62777794     0.29600
F1631       F  0.82704708  0.05143348  0.62396917    -0.19800
H1632       H  0.86955823  0.04822981  0.66248811     0.18000
H1633       H  0.85559490  0.45599642  0.60320905     0.18000
F1634       F  0.89819661  0.45292732  0.64201778    -0.19800
C1635       C  0.97806191  0.14656818  0.87326227    -0.21200
C1636       C  0.50520570  0.15685796  0.88514453    -0.09300
C1637       C  0.53192380  0.14384233  0.87494893     0.29600
C1638       C  0.53132495  0.12204152  0.85269603    -0.21200
C1639       C  0.00425112  0.11250738  0.84014003    -0.09300
C1640       C  0.97748432  0.12462577  0.85111063     0.29600
F1641       F  0.95067779  0.11561458  0.84028061    -0.19800
H1642       H  0.95711124  0.15580157  0.88085423     0.18000
H1643       H  0.55229450  0.11291661  0.84512098     0.18000
F1644       F  0.55881072  0.15207824  0.88605656    -0.19800
C1645       C  0.52352133  0.35974184  0.87736200    -0.21200
C1646       C  0.99738750  0.34806159  0.88994965    -0.09300
C1647       C  0.96974259  0.36052178  0.88177198     0.29600
C1648       C  0.96837036  0.38279458  0.85996008    -0.21200
C1649       C  0.99447124  0.39314285  0.84606724    -0.09300
C1650       C  0.52218849  0.38203489  0.85575077     0.29600
F1651       F  0.54813554  0.39203341  0.84382139    -0.19800
H1652       H  0.54515778  0.35104652  0.88347976     0.18000
H1653       H  0.94676794  0.39135831  0.85350450     0.18000
F1654       F  0.94398700  0.35092606  0.89442925    -0.19800
C1655       C  0.96501151  0.35976326  0.61617950    -0.21200
C1656       C  0.99152572  0.34454752  0.60961415    -0.09300
C1657       C  0.51758018  0.35191388  0.62552653     0.29600
C1658       C  0.51669590  0.37328702  0.64814640    -0.21200
C1659       C  0.48997542  0.38789739  0.65535087    -0.09300
C1660       C  0.96416652  0.38130793  0.63865551     0.29600
F1661       F  0.93808949  0.39567562  0.64363616    -0.19800
H1662       H  0.94475320  0.35504448  0.60392435     0.18000
H1663       H  0.53698565  0.37806248  0.66037147     0.18000
F1664       F  0.54383706  0.33806802  0.61979746    -0.19800
C1665       C  0.52386788  0.14312821  0.61453628    -0.21200
C1666       C  0.49698539  0.15856754  0.61008944    -0.09300
C1667       C  0.97209871  0.15083957  0.62752651     0.29600
C1668       C  0.97412782  0.12810288  0.64866250    -0.21200
C1669       C  0.50097642  0.11269659  0.65329074    -0.09300
C1670       C  0.52593729  0.12037233  0.63583368     0.29600
F1671       F  0.55227430  0.10591012  0.63897037    -0.19800
H1672       H  0.54335207  0.14860777  0.60137725     0.18000
H1673       H  0.95461212  0.12296642  0.66189866     0.18000
F1674       F  0.94602007  0.16589964  0.62517828    -0.19800
C1675       C  0.50219176  0.58949672  0.17683891     0.42500
N1676       N  0.98805283  0.56223492  0.21362878     0.01400
C1677       C  0.57408028  0.96975607  0.30202613    -0.06400
H1678       H  0.57431515  0.94311369  0.18829083     0.06900
C1679       C  0.96399170  0.92302987  0.19528757    -0.06800
Co1680     Co  0.53932034  0.53488354  0.24602851     0.74200
N1681       N  0.55624618  0.97867620  0.21472544    -0.26000
Co1682     Co  0.53165919  0.95804649  0.24822550     0.74100
C1683       C  0.48960474  0.90942871  0.18040898     0.42600
N1684       N  0.93407654  0.99055141  0.21617698     0.01100
N1685       N  0.50503079  0.93655462  0.21674989     0.01200
N1686       N  0.57846853  0.51993885  0.29982529    -0.46800
H1687       H  0.55175625  0.57851001  0.18594203     0.06900
N1688       N  0.55915774  0.50793347  0.21380103     0.01400
N1689       N  0.50623842  0.93875992  0.28189346     0.01200
C1690       C  0.99284227  0.91419716  0.32067733     0.42800
N1691       N  0.93690382  0.51981062  0.21544878    -0.25400
C1692       C  0.52988731  0.57703764  0.30056615    -0.06300
N1693       N  0.97815744  0.58015749  0.19241819    -0.46500
N1694       N  0.51656322  0.92251620  0.30418067    -0.46800
C1695       C  0.00419341  0.59067607  0.31528678     0.42600
N1696       N  0.56038610  0.50973392  0.27885581     0.01400
N1697       N  0.93757791  0.52170608  0.28022694    -0.25400
N1698       N  0.51731056  0.55942113  0.21330322    -0.25900
N1699       N  0.93470258  0.99248405  0.28125449     0.01100
H1700       H  0.91900115  0.55730449  0.30642261     0.07000
H1701       H  0.94313183  0.92469550  0.31217311     0.07000
N1702       N  0.55751428  0.98048071  0.27959860    -0.26000
N1703       N  0.97579107  0.93939809  0.21732850    -0.25600
N1704       N  0.98897819  0.56370089  0.27875723     0.01400
C1705       C  0.58536173  0.49223642  0.17698166     0.42800
C1706       C  0.92062816  0.53044777  0.19279421    -0.06900
N1707       N  0.97696964  0.94152708  0.28244353    -0.25600
H1708       H  0.94041506  0.92077626  0.19088118     0.07000
N1709       N  0.57651265  0.51692912  0.19174231    -0.46800
H1710       H  0.91829070  0.55369838  0.18693030     0.07000
C1711       C  0.90779569  0.00828713  0.31741931     0.42700
C1712       C  0.52832548  0.57575974  0.19080618    -0.06300
Co1713     Co  0.96246934  0.54239468  0.24699750     0.73800
N1714       N  0.91646241  0.98023185  0.19483507    -0.46500
C1715       C  0.58796687  0.99605287  0.31556364     0.42900
N1716       N  0.97966289  0.58145842  0.30038068    -0.46500
Co1717     Co  0.95482108  0.96552156  0.24934980     0.73900
C1718       C  0.96638836  0.92668226  0.30616808    -0.06900
C1719       C  0.57200712  0.96671583  0.19238011    -0.06400
N1720       N  0.51824546  0.56080369  0.27832431    -0.25900
N1721       N  0.51421958  0.91871475  0.19515828    -0.46700
H1722       H  0.57631592  0.94642147  0.30742258     0.06900
C1723       C  0.92137601  0.53371163  0.30220443    -0.06800
Cl1724     Cl  0.49707364  0.50022310  0.24763814    -0.49800
C1725       C  0.90729906  0.50410065  0.17904633     0.42700
H1726       H  0.55340571  0.57920239  0.30542237     0.06900
N1727       N  0.91696639  0.98351957  0.30304422    -0.46500
C1728       C  0.58771954  0.68353699  0.50283784     0.42500
N1729       N  0.56105741  0.72025067  0.48762852     0.01400
C1730       C  0.96586090  0.80572688  0.07343269    -0.06400
H1731       H  0.94565588  0.69059496  0.07671976     0.06900
C1732       C  0.92158740  0.69446718  0.46720382    -0.06800
Co1733     Co  0.53328808  0.75284692  0.03861810     0.74200
N1734       N  0.97937913  0.71889290  0.05770092    -0.26000
Co1735     Co  0.95636023  0.75037468  0.03247434     0.74100
C1736       C  0.90805549  0.68078667  0.49357118     0.42600
N1737       N  0.98905893  0.71756761  0.43458875     0.01100
N1738       N  0.93630522  0.71696928  0.00721808     0.01200
N1739       N  0.51617237  0.80630324  0.07716706    -0.46800
H1740       H  0.57684580  0.69444813  0.05203906     0.06900
N1741       N  0.50868250  0.71968270  0.06011580     0.01400
N1742       N  0.93416679  0.78183462  0.00646791     0.01200
C1743       C  0.90546330  0.81703716  0.49150582     0.42800
N1744       N  0.51831565  0.71891109  0.43701915    -0.25400
C1745       C  0.57374147  0.80848175  0.02654391    -0.06300
N1746       N  0.57838980  0.69828808  0.47825318    -0.46500
N1747       N  0.91564202  0.80273195  0.01597587    -0.46800
C1748       C  0.58675082  0.82224277  0.49996205     0.42600
N1749       N  0.50682730  0.78474821  0.05931152     0.01400
N1750       N  0.51602653  0.78401394  0.43708515    -0.25400
N1751       N  0.55861418  0.72090276  0.01687624    -0.25900
N1752       N  0.98672902  0.78296773  0.43466752     0.01100
H1753       H  0.54911205  0.81461431  0.42046290     0.07000
H1754       H  0.91587524  0.80670259  0.44221525     0.07000
N1755       N  0.97751861  0.78379032  0.05690714    -0.26000
N1756       N  0.93852515  0.71663587  0.47793580    -0.25600
N1757       N  0.55940880  0.78526401  0.48684705     0.01400
C1758       C  0.49540359  0.68297995  0.08784465     0.42800
C1759       C  0.53041068  0.69712485  0.42066396    -0.06900
N1760       N  0.93645817  0.78126039  0.47719239    -0.25600
H1761       H  0.91833630  0.68982860  0.44382745     0.07000
N1762       N  0.51919578  0.69861922  0.07794744    -0.46800
H1763       H  0.55407240  0.69357355  0.41814039     0.07000
C1764       C  0.99919527  0.82215744  0.41028800     0.42700
C1765       C  0.57469518  0.69873331  0.02849370    -0.06300
Co1766     Co  0.53923422  0.75208836  0.46166534     0.73800
N1767       N  0.98015393  0.69561987  0.41690644    -0.46500
C1768       C  0.99160032  0.82069497  0.08681861     0.42900
N1769       N  0.57693090  0.80649193  0.47634901    -0.46500
Co1770     Co  0.96231030  0.74947756  0.45551386     0.73900
C1771       C  0.91912944  0.80265956  0.46571524    -0.06900
C1772       C  0.96892379  0.69640614  0.07433681    -0.06400
N1773       N  0.55725009  0.78574762  0.01612582    -0.25900
N1774       N  0.91821425  0.69606802  0.01741966    -0.46700
H1775       H  0.94231155  0.80979873  0.07650438     0.06900
C1776       C  0.52600952  0.80796085  0.42227448    -0.06800
Cl1777     Cl  0.99778776  0.75117389  0.49708200    -0.49800
C1778       C  0.50502170  0.68147952  0.40733891     0.42700
H1779       H  0.57706826  0.81381526  0.04979463     0.06900
N1780       N  0.97576626  0.80526800  0.41876764    -0.46500
C1781       C  0.81584916  0.99946387  0.08846246     0.42500
N1782       N  0.77906743  0.51229904  0.06076146     0.01400
C1783       C  0.69415542  0.92391790  0.46758271    -0.06400
H1784       H  0.80750515  0.92158057  0.44379230     0.06900
C1785       C  0.80115328  0.53475919  0.42226256    -0.06800
Co1786     Co  0.74857464  0.95986998  0.03329088     0.74200
N1787       N  0.78154770  0.94215926  0.47846403    -0.26000
Co1788     Co  0.74859584  0.96627777  0.45634859     0.74100
C1789       C  0.81669017  0.00953195  0.40877277     0.42600
N1790       N  0.77714441  0.56536969  0.48863883     0.01100
N1791       N  0.78057069  0.99328522  0.43576833     0.01200
N1792       N  0.69529740  0.92077970  0.01786604    -0.46800
H1793       H  0.80869748  0.94965729  0.07771739     0.06900
N1794       N  0.78163785  0.93955920  0.00774234     0.01400
N1795       N  0.71540041  0.99092426  0.43505103     0.01200
C1796       C  0.67908200  0.50436060  0.40685988     0.42800
N1797       N  0.77718454  0.56306364  0.01790016    -0.25400
C1798       C  0.69271608  0.96872020  0.07364897    -0.06300
N1799       N  0.79985067  0.52299811  0.07879149    -0.46500
N1800       N  0.69461576  0.98055552  0.41679989    -0.46800
C1801       C  0.67710769  0.49425766  0.08645082     0.42600
N1802       N  0.71677871  0.93818180  0.00763502     0.01400
N1803       N  0.71238076  0.56019203  0.01741913    -0.25400
N1804       N  0.78022653  0.98304154  0.05819946    -0.25900
N1805       N  0.71232717  0.56264708  0.48815955     0.01100
H1806       H  0.68454589  0.57852685  0.05176154     0.07000
H1807       H  0.68687175  0.55403087  0.41835862     0.07000
N1808       N  0.71665522  0.94047560  0.47833428    -0.26000
N1809       N  0.77924169  0.52250718  0.43837316    -0.25600
N1810       N  0.71398507  0.50986379  0.06028192     0.01400
C1811       C  0.81689367  0.91078727  0.49313155     0.42800
C1812       C  0.79875079  0.58066474  0.02889086    -0.06900
N1813       N  0.71455505  0.52014385  0.43761172    -0.25600
H1814       H  0.80497424  0.55841960  0.42011527     0.07000
N1815       N  0.80221009  0.92073084  0.01742899    -0.46800
H1816       H  0.80359684  0.58350093  0.05228575     0.07000
C1817       C  0.67490294  0.58873299  0.50223431     0.42700
C1818       C  0.80288167  0.97284770  0.07480232    -0.06300
Co1819     Co  0.74567403  0.53675481  0.03964922     0.73800
N1820       N  0.79773380  0.58392676  0.47864028    -0.46500
C1821       C  0.67993813  0.91104825  0.49396236     0.42900
N1822       N  0.69171350  0.51895157  0.07730647    -0.46500
Co1823     Co  0.74579824  0.54311483  0.46284469     0.73900
C1824       C  0.69234015  0.53072668  0.42074265    -0.06900
C1825       C  0.80323209  0.92502588  0.46723380    -0.06400
N1826       N  0.71515883  0.98061816  0.05788609    -0.25900
N1827       N  0.80257099  0.98456431  0.41816081    -0.46700
H1828       H  0.68858814  0.92128491  0.44429539     0.06900
C1829       C  0.68950483  0.57583358  0.02836830    -0.06800
Cl1830     Cl  0.74724220  0.50148308  0.49802495    -0.49800
C1831       C  0.81240774  0.59451507  0.50265688     0.42700
H1832       H  0.68837976  0.94515787  0.07622083     0.06900
N1833       N  0.69046827  0.57973693  0.47815601    -0.46500
C1834       C  0.86532859  0.84566776  0.01719622    -0.21200
C1835       C  0.88310858  0.84129962  0.49183688    -0.09300
C1836       C  0.87910664  0.86019154  0.46712885     0.29600
C1837       C  0.85762489  0.88270343  0.46783365    -0.21200
C1838       C  0.83976811  0.88701508  0.49311312    -0.09300
C1839       C  0.84378428  0.86818792  0.01787479     0.29600
F1840       F  0.82646627  0.87097938  0.04247741    -0.19800
H1841       H  0.86780739  0.83133428  0.03644471     0.17100
H1842       H  0.85525493  0.89702105  0.44857899     0.18000
F1843       F  0.89635593  0.85758958  0.44249503    -0.19800
C1844       C  0.87290633  0.65013928  0.02349904    -0.21200
C1845       C  0.88408793  0.65812185  0.49537605    -0.09300
C1846       C  0.87141942  0.64498498  0.46985153     0.29600
C1847       C  0.84820243  0.62440221  0.47266906    -0.21200
C1848       C  0.83705912  0.61641344  0.50081010    -0.09300
C1849       C  0.84961007  0.62966017  0.02629885     0.29600
F1850       F  0.83930406  0.62342085  0.05396379    -0.19800
H1851       H  0.88203196  0.66000187  0.04355961     0.18000
H1852       H  0.83893221  0.61465793  0.45261351     0.18000
F1853       F  0.88107021  0.65190036  0.44210742    -0.19800
C1854       C  0.61762321  0.86225855  0.52367414    -0.21200
C1855       C  0.60957685  0.84601793  0.49817578    -0.09300
C1856       C  0.62412789  0.85221586  0.47106298     0.29600
C1857       C  0.64655671  0.87376969  0.46977254    -0.21200
C1858       C  0.65504418  0.88952210  0.49536730    -0.09300
C1859       C  0.64013939  0.88381467  0.52236903     0.29600
F1860       F  0.64716586  0.89910669  0.54751354    -0.19800
H1861       H  0.60661753  0.85824622  0.54473236     0.18000
H1862       H  0.65773211  0.87757902  0.44876442     0.18000
F1863       F  0.61730981  0.83701319  0.44582094    -0.19800
C1864       C  0.62046895  0.64776342  0.47559689    -0.21200
C1865       C  0.60846910  0.65784630  0.50268138    -0.09300
C1866       C  0.61702266  0.64343384  0.02922608     0.29600
C1867       C  0.63795895  0.62053177  0.02865900    -0.21200
C1868       C  0.65086906  0.61128092  0.50180308    -0.09300
C1869       C  0.64139631  0.62466959  0.47505667     0.29600
F1870       F  0.65264878  0.61591229  0.44841651    -0.19800
H1871       H  0.61400739  0.65807483  0.45476210     0.18000
H1872       H  0.64428724  0.61037518  0.04956539     0.18000
F1873       F  0.60559575  0.65131749  0.05599012    -0.19800
C1874       C  0.87289079  0.53576964  0.35089076    -0.21200
C1875       C  0.88558071  0.00872253  0.34179625    -0.09300
C1876       C  0.87623066  0.98219878  0.35569192     0.29600
C1877       C  0.85423012  0.98287055  0.37772683    -0.21200
C1878       C  0.84105101  0.00988517  0.38642119    -0.09300
C1879       C  0.85086648  0.53647039  0.37285985     0.29600
F1880       F  0.83888105  0.56322651  0.37999481    -0.19800
H1881       H  0.87951308  0.55655408  0.34062249     0.18000
H1882       H  0.84733786  0.96207198  0.38786239     0.18000
F1883       F  0.88821999  0.95553804  0.34801643    -0.19800
C1884       C  0.62235758  0.52572756  0.34758510    -0.21200
C1885       C  0.61034165  0.99777379  0.33988263    -0.09300
C1886       C  0.62102960  0.97223158  0.35465549     0.29600
C1887       C  0.64310746  0.97480572  0.37652538    -0.21200
C1888       C  0.65497835  0.50274241  0.38429501    -0.09300
C1889       C  0.64439193  0.52828180  0.36945743     0.29600
F1890       F  0.65568142  0.55572037  0.37523214    -0.19800
H1891       H  0.61495772  0.54576322  0.33636099     0.18000
H1892       H  0.65104773  0.95474454  0.38733055     0.18000
F1893       F  0.61053468  0.94466858  0.34809438    -0.19800
C1894       C  0.62172167  0.51928600  0.14499622    -0.21200
C1895       C  0.60730501  0.49245212  0.15229430    -0.09300
C1896       C  0.61473247  0.96647078  0.13630469     0.29600
C1897       C  0.63701917  0.96732862  0.11451878    -0.21200
C1898       C  0.65216305  0.49400885  0.10805158    -0.09300
C1899       C  0.64380724  0.52017304  0.12312764     0.29600
F1900       F  0.65743523  0.54658012  0.11739707    -0.19800
H1901       H  0.61631335  0.53969666  0.15665619     0.18000
H1902       H  0.64250050  0.94696295  0.10285917     0.18000
F1903       F  0.60064310  0.94022372  0.14147199    -0.19800
C1904       C  0.86693249  0.52807032  0.14943456    -0.21200
C1905       C  0.88490724  0.50312333  0.15495400    -0.09300
C1906       C  0.88056585  0.97720140  0.13796154     0.29600
C1907       C  0.85830514  0.97622298  0.11613184    -0.21200
C1908       C  0.83995086  0.00103595  0.11093804    -0.09300
C1909       C  0.84461852  0.52708496  0.12773523     0.29600
F1910       F  0.82708699  0.55141310  0.12393163    -0.19800
H1911       H  0.86958713  0.54820212  0.16245834     0.18000
H1912       H  0.85553213  0.95600848  0.10327418     0.18000
F1913       F  0.89813118  0.95294119  0.14207963    -0.19800
C1914       C  0.97805323  0.64656483  0.37326752    -0.21200
C1915       C  0.50519928  0.65687041  0.38513081    -0.09300
C1916       C  0.53191768  0.64386887  0.37491869     0.29600
C1917       C  0.53131577  0.62206696  0.35266728    -0.21200
C1918       C  0.00423882  0.61251700  0.34012966    -0.09300
C1919       C  0.97747276  0.62462035  0.35111801     0.29600
F1920       F  0.95066401  0.61559128  0.34030856    -0.19800
H1921       H  0.95710253  0.65578652  0.38087357     0.18000
H1922       H  0.55228555  0.61295426  0.34507848     0.18000
F1923       F  0.55880770  0.65212093  0.38600696    -0.19800
C1924       C  0.52350461  0.85975662  0.37735515    -0.21200
C1925       C  0.99737357  0.84807868  0.38994849    -0.09300
C1926       C  0.96972649  0.86053878  0.38177684     0.29600
C1927       C  0.96834988  0.88281062  0.35996482    -0.21200
C1928       C  0.99444833  0.89315520  0.34606576    -0.09300
C1929       C  0.52216741  0.88204715  0.35574324     0.29600
F1930       F  0.54811234  0.89204124  0.34380557    -0.19800
H1931       H  0.54514203  0.85105986  0.38346743     0.18000
H1932       H  0.94674653  0.89137472  0.35351252     0.18000
F1933       F  0.94397322  0.85094247  0.39443830    -0.19800
C1934       C  0.96498040  0.85976837  0.11616547    -0.21200
C1935       C  0.99150199  0.84457203  0.10958302    -0.09300
C1936       C  0.51756007  0.85195667  0.12548099     0.29600
C1937       C  0.51667306  0.87332757  0.14810309    -0.21200
C1938       C  0.48994562  0.88791677  0.15532641    -0.09300
C1939       C  0.96413185  0.88130915  0.13864555     0.29600
F1940       F  0.93804490  0.89565127  0.14364769    -0.19800
H1941       H  0.94471776  0.85503499  0.10392326     0.18000
H1942       H  0.53696695  0.87811717  0.16031577     0.18000
F1943       F  0.54382386  0.83813055  0.11973584    -0.19800
C1944       C  0.52382311  0.64315612  0.11454424    -0.21200
C1945       C  0.49694261  0.65859912  0.11010141    -0.09300
C1946       C  0.97205492  0.65086789  0.12753668     0.29600
C1947       C  0.97408345  0.62812564  0.14866895    -0.21200
C1948       C  0.50093168  0.61271608  0.15329234    -0.09300
C1949       C  0.52589079  0.62039357  0.13583393     0.29600
F1950       F  0.55222480  0.60592399  0.13895950    -0.19800
H1951       H  0.54330729  0.64863579  0.10138526     0.18000
H1952       H  0.95456834  0.62298628  0.16190488     0.18000
F1953       F  0.94597602  0.66592783  0.12518809    -0.19800
C1954       C  0.50219463  0.58949947  0.67683957     0.42500
N1955       N  0.98805545  0.56223571  0.71362798     0.01400
C1956       C  0.57408618  0.96976106  0.80202768    -0.06400
H1957       H  0.57432022  0.94311464  0.68829470     0.06900
C1958       C  0.96399682  0.92303037  0.69528983    -0.06800
Co1959     Co  0.53932273  0.53488492  0.74602846     0.74200
N1960       N  0.55625029  0.97867757  0.71472813    -0.26000
Co1961     Co  0.53166303  0.95804847  0.74822853     0.74100
C1962       C  0.48961009  0.90942866  0.68041216     0.42600
N1963       N  0.93408068  0.99055231  0.71617588     0.01100
N1964       N  0.50503551  0.93655523  0.71675291     0.01200
N1965       N  0.57847309  0.51994302  0.79982304    -0.46800
H1966       H  0.55175919  0.57851303  0.68594318     0.06900
N1967       N  0.55916066  0.50793417  0.71380214     0.01400
N1968       N  0.50624134  0.93876305  0.78189694     0.01200
C1969       C  0.99284340  0.91420258  0.82068196     0.42800
N1970       N  0.93690751  0.51981069  0.71544749    -0.25400
C1971       C  0.52988896  0.57704063  0.80056440    -0.06300
N1972       N  0.97816016  0.58015922  0.69241815    -0.46500
N1973       N  0.51656528  0.92252069  0.80418568    -0.46800
C1974       C  0.00419467  0.59067925  0.81528426     0.42600
N1975       N  0.56038832  0.50973659  0.77885648     0.01400
N1976       N  0.93757993  0.52170718  0.78022588    -0.25400
N1977       N  0.51731329  0.55942216  0.71330263    -0.25900
N1978       N  0.93470488  0.99248650  0.78125376     0.01100
H1979       H  0.91900231  0.55730555  0.80642109     0.07000
H1980       H  0.94313338  0.92470037  0.81217494     0.07000
N1981       N  0.55751723  0.98048417  0.77960134    -0.26000
N1982       N  0.97579572  0.93939898  0.71733063    -0.25600
N1983       N  0.98897999  0.56370234  0.77875599     0.01400
C1984       C  0.58536471  0.49223668  0.67698314     0.42800
C1985       C  0.92063271  0.53044761  0.69279222    -0.06900
N1986       N  0.97697235  0.94153016  0.78244572    -0.25600
H1987       H  0.94042027  0.92077692  0.69088298     0.07000
N1988       N  0.57651498  0.51692961  0.69174292    -0.46800
H1989       H  0.91829546  0.55369818  0.68692808     0.07000
C1990       C  0.90779762  0.00828976  0.81741839     0.42700
C1991       C  0.52832834  0.57576199  0.69080652    -0.06300
Co1992     Co  0.96247187  0.54239540  0.74699646     0.73800
N1993       N  0.91646765  0.98023243  0.69483314    -0.46500
C1994       C  0.58797175  0.99605923  0.81556335     0.42900
N1995       N  0.97966432  0.58146064  0.80037857    -0.46500
Co1996     Co  0.95482452  0.96552336  0.74935034     0.73900
C1997       C  0.96639015  0.92668665  0.80617067    -0.06900
C1998       C  0.57201161  0.96671686  0.69238326    -0.06400
N1999       N  0.51824740  0.56080558  0.77832329    -0.25900
N2000       N  0.51422472  0.91871475  0.69516187    -0.46700
H2001       H  0.57633127  0.94642623  0.80741968     0.06900
C2002       C  0.92137752  0.53371270  0.80220312    -0.06800
Cl2003     Cl  0.49707673  0.50022407  0.74763858    -0.49800
C2004       C  0.90730429  0.50410040  0.67904391     0.42700
H2005       H  0.55340733  0.57920609  0.80542045     0.06900
N2006       N  0.91696866  0.98352220  0.80304350    -0.46500
C2007       C  0.58771608  0.68353358  0.00283431     0.42500
N2008       N  0.56105580  0.72024964  0.98762728     0.01400
C2009       C  0.96586291  0.80572852  0.57343450    -0.06400
H2010       H  0.94565690  0.69059766  0.57672025     0.06900
C2011       C  0.92158775  0.69446514  0.96720226    -0.06800
Co2012     Co  0.53328902  0.75284919  0.53861800     0.74200
N2013       N  0.97938011  0.71889553  0.55770141    -0.26000
Co2014     Co  0.95636131  0.75037717  0.53247456     0.74100
C2015       C  0.90805687  0.68078308  0.99356936     0.42600
N2016       N  0.98905774  0.71756885  0.93458745     0.01100
N2017       N  0.93630560  0.71697168  0.50721914     0.01200
N2018       N  0.51617442  0.80630421  0.57716804    -0.46800
H2019       H  0.57684745  0.69445316  0.55204181     0.06900
N2020       N  0.50868350  0.71968536  0.56011621     0.01400
N2021       N  0.93416813  0.78183677  0.50646731     0.01200
C2022       C  0.90546255  0.81703577  0.99150720     0.42800
N2023       N  0.51831447  0.71891264  0.93701793    -0.25400
C2024       C  0.57373998  0.80848520  0.52654203    -0.06300
N2025       N  0.57838682  0.69828650  0.97825062    -0.46500
N2026       N  0.91564287  0.80273392  0.51597478    -0.46800
C2027       C  0.58675294  0.82223950  0.99996428     0.42600
N2028       N  0.50682879  0.78475044  0.55931130     0.01400
N2029       N  0.51602499  0.78401532  0.93708636    -0.25400
N2030       N  0.55861541  0.72090501  0.51687737    -0.25900
N2031       N  0.98672741  0.78296870  0.93466829     0.01100
H2032       H  0.54911029  0.81461642  0.92046511     0.07000
H2033       H  0.91587460  0.80670186  0.94221636     0.07000
N2034       N  0.97752007  0.78379284  0.55690734    -0.26000
N2035       N  0.93852457  0.71663439  0.97793470    -0.25600
N2036       N  0.55940808  0.78526317  0.98684818     0.01400
C2037       C  0.49540467  0.68298280  0.58784534     0.42800
C2038       C  0.53040986  0.69712760  0.92066157    -0.06900
N2039       N  0.93645677  0.78125893  0.97719303    -0.25600
H2040       H  0.91833644  0.68982712  0.94382579     0.07000
N2041       N  0.51919680  0.69862206  0.57794799    -0.46800
H2042       H  0.55407162  0.69357692  0.91813787     0.07000
C2043       C  0.99919337  0.82215935  0.91028980     0.42700
C2044       C  0.57469725  0.69873702  0.52849621    -0.06300
Co2045     Co  0.53923290  0.75208874  0.96166540     0.73800
N2046       N  0.98015302  0.69562203  0.91690393    -0.46500
C2047       C  0.99160281  0.82069561  0.58682086     0.42900
N2048       N  0.57693149  0.80649031  0.97635078    -0.46500
Co2049     Co  0.96230904  0.74947739  0.95551365     0.73900
C2050       C  0.91912834  0.80265842  0.96571633    -0.06900
C2051       C  0.96892480  0.69640883  0.57433739    -0.06400
N2052       N  0.55725034  0.78574957  0.51612465    -0.25900
N2053       N  0.91821349  0.69607161  0.51742118    -0.46700
H2054       H  0.94231365  0.80979998  0.57650745     0.06900
C2055       C  0.52600779  0.80796280  0.92227642    -0.06800
Cl2056     Cl  0.99778662  0.75117277  0.99708195    -0.49800
C2057       C  0.50502113  0.68148281  0.90733558     0.42700
H2058       H  0.57706570  0.81382012  0.54979257     0.06900
N2059       N  0.97576454  0.80526920  0.91876873    -0.46500
C2060       C  0.81585267  0.99946256  0.58846117     0.42500
N2061       N  0.77906962  0.51229783  0.56076184     0.01400
C2062       C  0.69415835  0.92391391  0.96758324    -0.06400
H2063       H  0.80750854  0.92158113  0.94379542     0.06900
C2064       C  0.80115380  0.53475735  0.92226157    -0.06800
Co2065     Co  0.74857493  0.95986993  0.53329044     0.74200
N2066       N  0.78154984  0.94215916  0.97846625    -0.26000
Co2067     Co  0.74859839  0.96627554  0.95634890     0.74100
C2068       C  0.81669265  0.00953196  0.90877330     0.42600
N2069       N  0.77714251  0.56536905  0.98863631     0.01100
N2070       N  0.78057348  0.99328390  0.93576896     0.01200
N2071       N  0.69529564  0.92078141  0.51786537    -0.46800
H2072       H  0.80870060  0.94965599  0.57771558     0.06900
N2073       N  0.78163662  0.93955889  0.50774015     0.01400
N2074       N  0.71540365  0.99091972  0.93504859     0.01200
C2075       C  0.67909247  0.50435406  0.90684970     0.42800
N2076       N  0.77718681  0.56306359  0.51790264    -0.25400
C2077       C  0.69271722  0.96872060  0.57364938    -0.06300
N2078       N  0.79985344  0.52299665  0.57879130    -0.46500
N2079       N  0.69462225  0.98054968  0.91679417    -0.46800
C2080       C  0.67710931  0.49425757  0.58645153     0.42600
N2081       N  0.71677733  0.93818327  0.50763466     0.01400
N2082       N  0.71238336  0.56019381  0.51742336    -0.25400
N2083       N  0.78022851  0.98304033  0.55819914    -0.25900
N2084       N  0.71232492  0.56264408  0.98815517     0.01100
H2085       H  0.68454988  0.57852851  0.55176701     0.07000
H2086       H  0.68687322  0.55402400  0.91834765     0.07000
N2087       N  0.71665742  0.94047290  0.97833453    -0.26000
N2088       N  0.77924286  0.52250483  0.93837263    -0.25600
N2089       N  0.71398732  0.50986363  0.56028361     0.01400
C2090       C  0.81689627  0.91078867  0.99313502     0.42800
C2091       C  0.79875274  0.58066487  0.52889362    -0.06900
N2092       N  0.71455749  0.52013889  0.93760764    -0.25600
H2093       H  0.80497289  0.55841791  0.92011289     0.07000
N2094       N  0.80220852  0.92072976  0.51742595    -0.46800
H2095       H  0.80359841  0.58350113  0.55228858     0.07000
C2096       C  0.67489914  0.58872893  0.00222836     0.42700
C2097       C  0.80288445  0.97284639  0.57480115    -0.06300
Co2098     Co  0.74567633  0.53675474  0.53965143     0.73800
N2099       N  0.79773258  0.58392529  0.97863744    -0.46500
C2100       C  0.67994079  0.91104488  0.99396323     0.42900
N2101       N  0.69171578  0.51895140  0.57730813    -0.46500
Co2102     Co  0.74579788  0.54311208  0.96284205     0.73900
C2103       C  0.69234601  0.53072067  0.92073364    -0.06900
C2104       C  0.80323498  0.92502649  0.96723683    -0.06400
N2105       N  0.71516033  0.98061837  0.55788694    -0.25900
N2106       N  0.80257442  0.98456379  0.91816175    -0.46700
H2107       H  0.68859168  0.92127966  0.94429590     0.06900
C2108       C  0.68950836  0.57583599  0.52837358    -0.06800
Cl2109     Cl  0.74724178  0.50148170  0.99802403    -0.49800
C2110       C  0.81240649  0.59451392  0.00265391     0.42700
H2111       H  0.68838010  0.94515831  0.57622037     0.06900
N2112       N  0.69046537  0.57973266  0.97815060    -0.46500
C2113       C  0.86532346  0.84566400  0.51719154    -0.21200
C2114       C  0.88310899  0.84129923  0.99183894    -0.09300
C2115       C  0.87910341  0.86018801  0.96712910     0.29600
C2116       C  0.85762293  0.88270086  0.96783482    -0.21200
C2117       C  0.83977055  0.88701643  0.99311671    -0.09300
C2118       C  0.84377820  0.86818330  0.51786934     0.29600
F2119       F  0.82645566  0.87097073  0.54246924    -0.19800
H2120       H  0.86779939  0.83132792  0.53643848     0.17100
H2121       H  0.85525026  0.89701579  0.94857852     0.18000
F2122       F  0.89634741  0.85758184  0.94249204    -0.19800
C2123       C  0.87290901  0.65013905  0.52350183    -0.21200
C2124       C  0.88408968  0.65811772  0.99537381    -0.09300
C2125       C  0.87142566  0.64497627  0.96984938     0.29600
C2126       C  0.84820762  0.62439441  0.97266650    -0.21200
C2127       C  0.83705932  0.61641077  0.00080707    -0.09300
C2128       C  0.84961343  0.62965916  0.52630208     0.29600
F2129       F  0.83931207  0.62341499  0.55396767    -0.19800
H2130       H  0.88203798  0.65999838  0.54356249     0.18000
H2131       H  0.83894064  0.61464666  0.95261113     0.18000
F2132       F  0.88108237  0.65188582  0.94210587    -0.19800
C2133       C  0.61762681  0.86225436  0.02367644    -0.21200
C2134       C  0.60958032  0.84601346  0.99817830    -0.09300
C2135       C  0.62413197  0.85221047  0.97106559     0.29600
C2136       C  0.64656058  0.87376446  0.96977471    -0.21200
C2137       C  0.65504756  0.88951785  0.99536898    -0.09300
C2138       C  0.64014294  0.88381061  0.02237094     0.29600
F2139       F  0.64716927  0.89910316  0.04751519    -0.19800
H2140       H  0.60662094  0.85824243  0.04473466     0.18000
H2141       H  0.65773607  0.87757335  0.94876657     0.18000
F2142       F  0.61731457  0.83700681  0.94582398    -0.19800
C2143       C  0.62046869  0.64776355  0.97559187    -0.21200
C2144       C  0.60846414  0.65784154  0.00267617    -0.09300
C2145       C  0.61703345  0.64344461  0.52923273     0.29600
C2146       C  0.63796957  0.62054245  0.52866622    -0.21200
C2147       C  0.65086411  0.61127591  0.00179656    -0.09300
C2148       C  0.64139597  0.62466954  0.97505098     0.29600
F2149       F  0.65265342  0.61591737  0.94841123    -0.19800
H2150       H  0.61401130  0.65807935  0.95475795     0.18000
H2151       H  0.64430237  0.61039050  0.54957350     0.18000
F2152       F  0.60561297  0.65133456  0.55599764    -0.19800
C2153       C  0.87289639  0.53577033  0.85089451    -0.21200
C2154       C  0.88558299  0.00872470  0.84179585    -0.09300
C2155       C  0.87622926  0.98219999  0.85568731     0.29600
C2156       C  0.85422905  0.98287114  0.87772255    -0.21200
C2157       C  0.84105362  0.00988604  0.88642155    -0.09300
C2158       C  0.85087226  0.53647052  0.87286392     0.29600
F2159       F  0.83889182  0.56322742  0.88000437    -0.19800
H2160       H  0.87952222  0.55655563  0.84063025     0.18000
H2161       H  0.84733395  0.96207176  0.88785449     0.18000
F2162       F  0.88821430  0.95553870  0.84800709    -0.19800
C2163       C  0.62245981  0.52571790  0.84749279    -0.21200
C2164       C  0.61035248  0.99778110  0.83987629    -0.09300
C2165       C  0.62094510  0.97225054  0.85473808     0.29600
C2166       C  0.64302888  0.97481964  0.87660315    -0.21200
C2167       C  0.65499467  0.50273926  0.88428099    -0.09300
C2168       C  0.64449859  0.52826691  0.86936065     0.29600
F2169       F  0.65588941  0.55568326  0.87504439    -0.19800
H2170       H  0.61513139  0.54574264  0.83620257     0.18000
H2171       H  0.65089324  0.95476858  0.88748262     0.18000
F2172       F  0.61033857  0.94470553  0.84827995    -0.19800
C2173       C  0.62172299  0.51928638  0.64499614    -0.21200
C2174       C  0.60730710  0.49245235  0.65229512    -0.09300
C2175       C  0.61473522  0.96647144  0.63630665     0.29600
C2176       C  0.63702150  0.96732915  0.61452036    -0.21200
C2177       C  0.65216437  0.49400890  0.60805183    -0.09300
C2178       C  0.64380802  0.52017337  0.62312709     0.29600
F2179       F  0.65743487  0.54658076  0.61739517    -0.19800
H2180       H  0.61631447  0.53969721  0.65665574     0.18000
H2181       H  0.64250309  0.94696326  0.60286128     0.18000
F2182       F  0.60064617  0.94022436  0.64147466    -0.19800
C2183       C  0.86693920  0.52807071  0.64943025    -0.21200
C2184       C  0.88491276  0.50312314  0.65495110    -0.09300
C2185       C  0.88057039  0.97720072  0.63795984     0.29600
C2186       C  0.85830889  0.97622175  0.61613085    -0.21200
C2187       C  0.83995584  0.00103530  0.61093545    -0.09300
C2188       C  0.84462485  0.52708513  0.62773124     0.29600
F2189       F  0.82709488  0.55141418  0.62392615    -0.19800
H2190       H  0.86959493  0.54820318  0.66245276     0.18000
H2191       H  0.85553415  0.95600626  0.60327512     0.18000
F2192       F  0.89813453  0.95293989  0.64207928    -0.19800
C2193       C  0.97805328  0.64656821  0.87326389    -0.21200
C2194       C  0.50519923  0.65687469  0.88512668    -0.09300
C2195       C  0.53191798  0.64387447  0.87491394     0.29600
C2196       C  0.53131652  0.62207230  0.85266294    -0.21200
C2197       C  0.00423965  0.61252114  0.84012607    -0.09300
C2198       C  0.97747328  0.62462377  0.85111443     0.29600
F2199       F  0.95066473  0.61559394  0.84030512    -0.19800
H2200       H  0.95710235  0.65578905  0.88087039     0.18000
H2201       H  0.55228654  0.61296035  0.84507389     0.18000
F2202       F  0.55880796  0.65212812  0.88600111    -0.19800
C2203       C  0.52350339  0.85976552  0.87736472    -0.21200
C2204       C  0.99737155  0.84808189  0.88995160    -0.09300
C2205       C  0.96972407  0.86053801  0.88177501     0.29600
C2206       C  0.96834827  0.88281089  0.85996393    -0.21200
C2207       C  0.99444788  0.89316079  0.84607084    -0.09300
C2208       C  0.52216695  0.88205738  0.85575400     0.29600
F2209       F  0.54811267  0.89205772  0.84382324    -0.19800
H2210       H  0.54514109  0.85107252  0.88348137     0.18000
H2211       H  0.94674475  0.89137130  0.85350729     0.18000
F2212       F  0.94396966  0.85093650  0.89443032    -0.19800
C2213       C  0.96498467  0.85976946  0.61616829    -0.21200
C2214       C  0.99150550  0.84457190  0.60958609    -0.09300
C2215       C  0.51756382  0.85195526  0.62548437     0.29600
C2216       C  0.51667760  0.87332611  0.64810669    -0.21200
C2217       C  0.48995078  0.88791665  0.65532959    -0.09300
C2218       C  0.96413704  0.88131049  0.63864808     0.29600
F2219       F  0.93805104  0.89565475  0.64364890    -0.19800
H2220       H  0.94472198  0.85503724  0.60392570     0.18000
H2221       H  0.53697153  0.87811480  0.66031964     0.18000
F2222       F  0.54382712  0.83812828  0.61973900    -0.19800
C2223       C  0.52382583  0.64316218  0.61454766    -0.21200
C2224       C  0.49694403  0.65860221  0.61010235    -0.09300
C2225       C  0.97205570  0.65086855  0.62753571     0.29600
C2226       C  0.97408482  0.62812643  0.64866810    -0.21200
C2227       C  0.50093431  0.61271947  0.65329357    -0.09300
C2228       C  0.52589418  0.62040001  0.63583763     0.29600
F2229       F  0.55222983  0.60593404  0.63896601    -0.19800
H2230       H  0.54331066  0.64864402  0.60139056     0.18000
H2231       H  0.95456906  0.62298492  0.66190227     0.18000
F2232       F  0.94597541  0.66592574  0.62518493    -0.19800
loop_ 
_geom_bond_atom_site_label_1 
_geom_bond_atom_site_label_2 
_geom_bond_distance 
_geom_bond_site_symmetry_2 
_ccdc_geom_bond_type 
C1           C38   1.466       .  S
C1          C274   1.486       .  S
C1         N1135   1.352   1_455  A
N2           N19   1.323       .  A
N2         N1140   1.319       .  A
N2          Co39   2.087       .  S
C3           C41   1.465       .  S
C3           N28   1.341       .  A
C3           H48   1.080       .  S
H4           C45   1.080       .  S
C5         C1125   1.464       .  S
C5           N29   1.340       .  A
C5           H34   1.080       .  S
Co6          N24   2.085       .  S
Co6          N14   2.087       .  S
Co6          N46   2.087       .  S
Co6          N22   2.083       .  S
Co6         Cl50   2.450   1_455  S
N7           C45   1.341       .  A
N7          N572   1.319       .  A
N7           Co8   2.083       .  S
Co8          N11   2.085       .  S
Co8          N28   2.082       .  S
Co8          N15   2.082       .  S
Co8        Cl608   2.449   1_455  S
C9          C264   1.484       .  S
C9         C1121   1.464       .  S
C9           N47   1.352   1_655  A
N10          N40   1.324       .  A
N10         N575   1.320       .  A
N10         Co43   2.085       .  S
N11          N47   1.324       .  A
N11        N1145   1.318   1_455  A
N12         C599   1.351   1_545  A
N12          N22   1.323       .  A
H13          C38   1.080       .  S
N14          N35   1.323       .  A
N14         N565   1.319   1_545  A
N15          N20   1.322       .  A
N15        N1149   1.319   1_455  A
C16          C44   1.465       .  S
C16         C254   1.482       .  S
C16        N1136   1.349       .  A
N17          C32   1.340       .  A
N17         N568   1.320   1_545  A
N17         Co39   2.083       .  S
C18        C1137   1.464       .  S
C18          N46   1.341       .  A
C18          H52   1.081       .  S
N19        C1117   1.352       .  A
N20        C1132   1.349   1_455  A
C21         C244   1.485       .  S
C21        C1134   1.464       .  S
C21          N42   1.351       .  A
N22         N586   1.318   1_545  A
N23          C49   1.340       .  A
N23         N583   1.319   1_545  A
N23         Co39   2.082       .  S
N24          C38   1.343       .  A
N24        N1118   1.319   1_455  A
N25          N53   1.324       .  A
N25         N581   1.319       .  A
N25         Co43   2.083       .  S
H26          C49   1.081       .  S
H27          C44   1.081       .  S
N28         N580   1.318       .  A
N29        N1127   1.318       .  A
N29         Co43   2.082       .  S
N30          N42   1.325       .  A
N30        N1162   1.319       .  A
N30         Co39   2.086       .  S
C31         C221   1.483       .  S
C31         C603   1.464       .  S
C31          N35   1.352   1_565  A
C32          C51   1.460       .  S
C32          H36   1.081       .  S
N33          C44   1.343       .  A
N33        N1131   1.319       .  A
N33         Co43   2.087       .  S
C37         C201   1.481       .  S
C37         C607   1.463       .  S
C37          N53   1.350       .  A
Co39      Cl1166   2.450       .  S
N40         C609   1.350       .  A
C41         C211   1.484       .  S
C41         N570   1.351       .  A
Co43      Cl1724   2.452       .  S
C45         C589   1.464       .  S
N46        N1146   1.319   1_455  A
C49         C595   1.463       .  S
Cl50       Co566   2.449   1_645  S
Cl50      Co1155   2.450       .  S
Cl50      Co1717   2.452   1_545  S
C51         C231   1.476       .  S
C51         N598   1.350   1_545  A
C54         C191   1.483       .  S
C54         C370   1.462       .  S
C54          N72   1.353       .  A
N55          N72   1.325       .  A
N55         N356   1.318       .  A
N55         Co92   2.088       .  S
C56          C94   1.463       .  S
C56          N81   1.340       .  A
C56         H101   1.081       .  S
H57          C98   1.081       .  S
C58          C62   1.466       .  S
C58          N82   1.340       .  A
C58          H87   1.080       .  S
Co59         N77   2.075       .  S
Co59         N67   2.088       .  S
Co59         N99   2.086       .  S
Co59         N75   2.081       .  S
Co59      Cl1498   2.452   1_454  S
N60          C98   1.340       .  A
N60        N1183   1.319       .  A
N60         Co61   2.085       .  S
Co61         N64   2.082       .  S
Co61         N81   2.084       .  S
Co61         N68   2.086       .  S
Co61       Cl382   2.447   1_554  S
C62         C171   1.481       .  S
C62         N379   1.350       .  A
N63          N93   1.326       .  A
N63        N1186   1.318       .  A
N63         Co96   2.093       .  S
N64         N100   1.321       .  A
N64         N361   1.319   1_554  A
N65        C1210   1.350   1_455  A
N65          N75   1.324       .  A
H66          C91   1.079       .  S
N67          N88   1.326       .  A
N67        N1176   1.319   1_455  A
N68          N73   1.325       .  A
N68         N365   1.319   1_554  A
C69          C97   1.462       .  S
C69         C161   1.482       .  S
C69         N352   1.352       .  A
N70          C85   1.339       .  A
N70        N1179   1.318   1_455  A
N70         Co92   2.077       .  S
C71         C353   1.465   1_554  S
C71          N99   1.343       .  A
C71         H105   1.081       .  S
N73         C348   1.352   1_554  A
C74         C181   1.479       .  S
C74         C350   1.465       .  S
C74          N95   1.347       .  A
N75        N1197   1.319   1_455  A
N76         C102   1.340       .  A
N76        N1194   1.319   1_455  A
N76         Co92   2.087       .  S
N77          C91   1.336       .  A
N77         N334   1.318   1_554  A
N78         N106   1.324       .  A
N78        N1192   1.319       .  A
N78         Co96   2.081       .  S
H79         C102   1.081       .  S
H80          C97   1.081       .  S
N81        N1191   1.319       .  A
N82         N343   1.319       .  A
N82         Co96   2.079       .  S
N83          N95   1.321       .  A
N83         N378   1.319       .  A
N83         Co92   2.075       .  S
C84         C271   1.484       .  S
C84        C1214   1.464       .  S
C84          N88   1.352   1_655  A
C85         C104   1.464       .  S
C85          H89   1.079       .  S
N86          C97   1.339       .  A
N86         N347   1.319       .  A
N86         Co96   2.082       .  S
C90         C251   1.481       .  S
C90        C1218   1.464       .  S
C90         N106   1.350       .  A
C91         C333   1.462       .  S
Co92      Cl1219   2.448   1_455  S
N93        C1220   1.355       .  A
C94         C261   1.481       .  S
C94        N1181   1.350       .  A
Co96       Cl103   2.452       .  S
C98        C1200   1.464       .  S
N99         N362   1.319   1_554  A
N100        C341   1.350   1_554  A
C102       C1206   1.464   1_455  S
Cl103     Co1454   2.452       .  S
Cl103      Co340   2.447       .  S
Cl103     Co1208   2.448       .  S
C104        C241   1.488       .  S
C104       N1209   1.355   1_455  A
C107        C144   1.462       .  S
C107        C234   1.480       .  S
C107        N683   1.350       .  A
N108        N125   1.323       .  A
N108        N688   1.320   1_545  A
N108       Co145   2.085       .  S
C109        C147   1.464       .  S
C109        N134   1.341       .  A
C109        H154   1.081       .  S
H110        C151   1.081       .  S
C111        C673   1.463       .  S
C111        N135   1.338       .  A
C111        H140   1.080       .  S
Co112       N130   2.083       .  S
Co112       N120   2.087       .  S
Co112       N152   2.084       .  S
Co112       N128   2.073       .  S
Co112      Cl993   2.450   1_554  S
N113        C151   1.340       .  A
N113        N399   1.320       .  A
N113       Co114   2.084       .  S
Co114       N117   2.092       .  S
Co114       N134   2.089       .  S
Co114       N121   2.087       .  S
Co114      Cl714   2.451       .  S
C115        C204   1.485       .  S
C115        C669   1.463       .  S
C115        N153   1.354       .  A
N116        N146   1.321       .  A
N116        N402   1.318       .  A
N116       Co149   2.075       .  S
N117        N153   1.325       .  A
N117        N693   1.319       .  A
N118        C426   1.347   1_554  A
N118        N128   1.322       .  A
H119        C144   1.081       .  S
N120        N141   1.325       .  A
N120        N392   1.320   1_554  A
N121        N126   1.324       .  A
N121        N697   1.318       .  A
C122        C150   1.463       .  S
C122        C214   1.483       .  S
C122        N684   1.353   1_545  A
N123        C138   1.341       .  A
N123        N395   1.318   1_554  A
N123       Co145   2.084       .  S
C124        C685   1.462       .  S
C124        N152   1.341       .  A
C124        H158   1.081       .  S
N125        C665   1.350   1_545  A
N126        C680   1.352       .  A
C127        C224   1.482       .  S
C127        C682   1.462       .  S
C127        N148   1.351   1_565  A
N128        N413   1.320   1_554  A
N129        C155   1.338       .  A
N129        N410   1.319   1_554  A
N129       Co145   2.082       .  S
N130        C144   1.341       .  A
N130        N666   1.320       .  A
N131        N159   1.324       .  A
N131        N408   1.319       .  A
N131       Co149   2.079       .  S
H132        C155   1.081       .  S
H133        C150   1.080       .  S
N134        N407   1.320       .  A
N135        N675   1.319   1_545  A
N135       Co149   2.079       .  S
N136        N148   1.324       .  A
N136        N710   1.318   1_545  A
N136       Co145   2.081       .  S
C137        C151   1.461       .  S
C137        C164   1.481       .  S
C137        N420   1.351       .  A
C138        C436   1.466       .  S
C138        H142   1.080       .  S
N139        C150   1.339       .  A
N139        N679   1.318   1_545  A
N139       Co149   2.074       .  S
N141        C416   1.351   1_554  A
C143        C194   1.480       .  S
C143        C434   1.463       .  S
C143        N159   1.350       .  A
Co145      Cl435   2.451   1_554  S
N146        C157   1.349       .  A
C147        C184   1.476       .  S
C147        N397   1.347       .  A
Co149      Cl156   2.448       .  S
N152        N694   1.318       .  A
C155        C422   1.463       .  S
Cl156      Co949   2.450   1_545  S
Cl156      Co672   2.451   1_545  S
Cl156      Co424   2.451       .  S
C157        C174   1.480       .  S
C157        C417   1.466       .  S
C160        H167   1.083       .  S
C160        C165   1.400       .  A
C160        C440   1.405   1_554  A
C161        C162   1.408       .  A
C161        C439   1.405       .  A
C162        C163   1.398       .  A
C162        F169   1.356       .  S
C163        H168   1.083       .  S
C163        C164   1.404       .  A
C164        C444   1.408       .  A
C165        C443   1.408   1_554  A
C165        F166   1.357       .  S
C170        H177   1.083       .  S
C170        C175   1.396       .  A
C170        C450   1.406   1_554  A
C171        C172   1.408       .  A
C171        C449   1.406       .  A
C172        C173   1.396       .  A
C172        F179   1.355       .  S
C173        H178   1.083       .  S
C173        C174   1.406       .  A
C174        C454   1.406       .  A
C175        C453   1.406       .  A
C175        F176   1.355       .  S
C180        H187   1.082       .  S
C180        C181   1.404       .  A
C180        C185   1.398       .  A
C181        C182   1.410       .  A
C182        C183   1.395       .  A
C182        F189   1.357       .  S
C183        H188   1.082       .  S
C183        C184   1.401       .  A
C184        C185   1.409       .  A
C185        F186   1.358       .  S
C190        H197   1.083       .  S
C190        C191   1.406       .  A
C190        C195   1.400       .  A
C191        C471   1.409       .  A
C192        C193   1.394       .  A
C192        C470   1.409       .  A
C192        F199   1.355       .  S
C193        H198   1.081       .  S
C193        C473   1.402       .  A
C194        C195   1.408       .  A
C194        C472   1.402       .  A
C195        F196   1.357       .  S
C200        H207   1.082       .  S
C200        C205   1.397       .  A
C200        C759   1.404       .  A
C201        C202   1.407       .  A
C201        C758   1.404       .  A
C202        C203   1.399       .  A
C202        F209   1.357       .  S
C203        H208   1.083       .  S
C203        C204   1.405       .  A
C204        C763   1.410       .  A
C205        C762   1.410       .  A
C205        F206   1.355       .  S
C210        H217   1.083       .  S
C210        C215   1.397       .  A
C210        C769   1.405   1_545  A
C211        C212   1.409       .  A
C211        C768   1.405       .  A
C212        C213   1.398       .  A
C212        F219   1.355       .  S
C213        H218   1.083       .  S
C213        C772   1.404       .  A
C214        C215   1.409       .  A
C214        C771   1.404   1_545  A
C215        F216   1.355       .  S
C220        H227   1.083       .  S
C220        C221   1.405   1_545  A
C220        C225   1.396       .  A
C221        C780   1.409       .  A
C222        C223   1.400       .  A
C222        C779   1.409       .  A
C222        F229   1.356       .  S
C223        H228   1.082       .  S
C223        C782   1.405       .  A
C224        C225   1.407   1_565  A
C224        C781   1.405       .  A
C225        F226   1.357       .  S
C230        H237   1.083       .  S
C230        C231   1.403       .  A
C230        C235   1.396       .  A
C231        C790   1.406   1_545  A
C232        C233   1.399       .  A
C232        C789   1.406       .  A
C232        F239   1.358       .  S
C233        H238   1.082       .  S
C233        C234   1.405       .  A
C234        C793   1.408       .  A
C235        C792   1.408       .  A
C235        F236   1.357       .  S
C240        H247   1.083       .  S
C240        C245   1.400       .  A
C240       C1357   1.406       .  A
C241        C242   1.411       .  A
C241       C1356   1.406   1_455  A
C242        C243   1.399       .  A
C242        F249   1.355       .  S
C243        H248   1.082       .  S
C243       C1360   1.404       .  A
C244        C245   1.408       .  A
C244       C1359   1.404       .  A
C245        F246   1.357       .  S
C250        H257   1.082       .  S
C250        C255   1.395       .  A
C250       C1367   1.403   1_455  A
C251        C252   1.409       .  A
C251       C1366   1.403       .  A
C252        C253   1.401       .  A
C252        F259   1.357       .  S
C253        H258   1.082       .  S
C253        C254   1.405       .  A
C254       C1371   1.408       .  A
C255       C1370   1.408   1_455  A
C255        F256   1.357       .  S
C260        H267   1.082       .  S
C260        C261   1.404       .  A
C260        C265   1.398       .  A
C261       C1378   1.408       .  A
C262        C263   1.398       .  A
C262       C1377   1.408   1_455  A
C262        F269   1.357       .  S
C263        H268   1.083       .  S
C263        C264   1.405   1_455  A
C264       C1381   1.409       .  A
C265       C1380   1.409       .  A
C265        F266   1.355       .  S
C270        H277   1.083       .  S
C270        C271   1.406   1_455  A
C270        C275   1.402       .  A
C271       C1388   1.407       .  A
C272        C273   1.397       .  A
C272       C1387   1.407       .  A
C272        F279   1.356       .  S
C273        H278   1.083       .  S
C273       C1390   1.405       .  A
C274        C275   1.410       .  A
C274       C1389   1.405   1_455  A
C275        F276   1.356       .  S
C280        C317   1.466       .  S
C280        C553   1.486       .  S
C280       N1414   1.352   1_455  A
N281        N298   1.323       .  A
N281       N1419   1.319       .  A
N281       Co318   2.087       .  S
C282        C320   1.465       .  S
C282        N307   1.341       .  A
C282        H327   1.080       .  S
H283        C324   1.080       .  S
C284       C1404   1.464       .  S
C284        N308   1.340       .  A
C284        H313   1.080       .  S
Co285       N303   2.085       .  S
Co285       N293   2.087       .  S
Co285       N325   2.087       .  S
Co285       N301   2.083       .  S
Co285      Cl329   2.450   1_455  S
N286        C324   1.341       .  A
N286        N851   1.319       .  A
N286       Co287   2.083       .  S
Co287       N290   2.085       .  S
Co287       N307   2.082       .  S
Co287       N294   2.082       .  S
Co287      Cl887   2.449   1_455  S
C288       C1400   1.464       .  S
C288        C543   1.484       .  S
C288        N326   1.352   1_655  A
N289        N854   1.320       .  A
N289        N319   1.324       .  A
N289       Co322   2.085       .  S
N290       N1424   1.318   1_455  A
N290        N326   1.324       .  A
N291        C878   1.351   1_545  A
N291        N301   1.323       .  A
H292        C317   1.080       .  S
N293        N844   1.319   1_545  A
N293        N314   1.323       .  A
N294       N1428   1.319   1_455  A
N294        N299   1.322       .  A
C295        C323   1.465       .  S
C295        C533   1.482       .  S
C295       N1415   1.349       .  A
N296        C311   1.340       .  A
N296        N847   1.320   1_545  A
N296       Co318   2.083       .  S
C297       C1416   1.464       .  S
C297        N325   1.341       .  A
C297        H331   1.081       .  S
N298       C1396   1.352       .  A
N299       C1411   1.349   1_455  A
C300       C1413   1.464       .  S
C300        C523   1.485       .  S
C300        N321   1.351       .  A
N301        N865   1.318   1_545  A
N302        C328   1.340       .  A
N302        N862   1.319   1_545  A
N302       Co318   2.082       .  S
N303        C317   1.343       .  A
N303       N1397   1.319   1_455  A
N304        N860   1.319       .  A
N304        N332   1.324       .  A
N304       Co322   2.083       .  S
H305        C328   1.081       .  S
H306        C323   1.081       .  S
N307        N859   1.318       .  A
N308       N1406   1.318       .  A
N308       Co322   2.082       .  S
N309        N321   1.325       .  A
N309       N1441   1.319       .  A
N309       Co318   2.086       .  S
C310        C882   1.464       .  S
C310        C500   1.483       .  S
C310        N314   1.352   1_565  A
C311        C330   1.460       .  S
C311        H315   1.081       .  S
N312        C323   1.343       .  A
N312       N1410   1.319       .  A
N312       Co322   2.087       .  S
C316        C886   1.463       .  S
C316        C480   1.481       .  S
C316        N332   1.350       .  A
Co318     Cl1445   2.450       .  S
N319        C888   1.350       .  A
C320        C490   1.484       .  S
C320        N849   1.351       .  A
Co322     Cl2003   2.452       .  S
C324        C868   1.464       .  S
N325       N1425   1.319   1_455  A
C328        C874   1.463       .  S
Cl329      Co845   2.449   1_645  S
Cl329     Co1434   2.450       .  S
Cl329     Co1996   2.452   1_545  S
C330        C510   1.476       .  S
C330        N877   1.350   1_545  A
C333        C470   1.483       .  S
C333        N351   1.353   1_554  A
N334        N351   1.325       .  A
N334       Co371   2.088       .  S
C335        C373   1.463       .  S
C335        N360   1.340       .  A
C335        H380   1.081       .  S
H336        C377   1.081       .  S
C337        C341   1.466       .  S
C337        N361   1.340       .  A
C337        H366   1.080       .  S
Co338       N356   2.075       .  S
Co338       N346   2.088       .  S
Co338       N378   2.086       .  S
Co338       N354   2.081       .  S
Co338     Cl1219   2.452   1_455  S
N339        C377   1.340       .  A
N339       N1462   1.319       .  A
N339       Co340   2.085       .  S
Co340       N343   2.082       .  S
Co340       N360   2.084       .  S
Co340       N347   2.086       .  S
C341        C450   1.481       .  S
N342       N1465   1.318       .  A
N342        N372   1.326       .  A
N342       Co375   2.093       .  S
N343        N379   1.321       .  A
N344       C1489   1.350   1_455  A
N344        N354   1.324       .  A
H345        C370   1.079       .  S
N346       N1455   1.319   1_455  A
N346        N367   1.326       .  A
N347        N352   1.325       .  A
C348        C376   1.462       .  S
C348        C440   1.482       .  S
N349        C364   1.339       .  A
N349       N1458   1.318   1_455  A
N349       Co371   2.077       .  S
C350        N378   1.343       .  A
C350        H384   1.081       .  S
C353        C460   1.479       .  S
C353        N374   1.347       .  A
N354       N1476   1.319   1_455  A
N355        C381   1.340       .  A
N355       N1473   1.319   1_455  A
N355       Co371   2.087       .  S
N356        C370   1.336       .  A
N357       N1471   1.319       .  A
N357        N385   1.324       .  A
N357       Co375   2.081       .  S
H358        C381   1.081       .  S
H359        C376   1.081       .  S
N360       N1470   1.319       .  A
N361       Co375   2.079       .  S
N362        N374   1.321       .  A
N362       Co371   2.075       .  S
C363       C1493   1.464       .  S
C363        C550   1.484       .  S
C363        N367   1.352   1_655  A
C364        C383   1.464       .  S
C364        H368   1.079       .  S
N365        C376   1.339       .  A
N365       Co375   2.082       .  S
C369       C1497   1.464       .  S
C369        C530   1.481       .  S
C369        N385   1.350       .  A
Co371     Cl1498   2.448   1_455  S
N372       C1499   1.355       .  A
C373        C540   1.481       .  S
C373       N1460   1.350       .  A
Co375      Cl382   2.452       .  S
C377       C1479   1.464       .  S
C381       C1485   1.464   1_455  S
Cl382     Co1175   2.452   1_556  S
Cl382     Co1487   2.448       .  S
C383        C520   1.488       .  S
C383       N1488   1.355   1_455  A
C386        C423   1.462       .  S
C386        C513   1.480       .  S
C386        N962   1.350       .  A
N387        N404   1.323       .  A
N387        N967   1.320   1_545  A
N387       Co424   2.085       .  S
C388        C426   1.464       .  S
C388        N413   1.341       .  A
C388        H433   1.081       .  S
H389        C430   1.081       .  S
C390        C952   1.463       .  S
C390        N414   1.338       .  A
C390        H419   1.080       .  S
Co391       N409   2.083       .  S
Co391       N399   2.087       .  S
Co391       N431   2.084       .  S
Co391       N407   2.073       .  S
Co391      Cl714   2.450       .  S
N392        C430   1.340       .  A
N392       Co393   2.084       .  S
Co393       N396   2.092       .  S
Co393       N413   2.089       .  S
Co393       N400   2.087       .  S
Co393      Cl993   2.451       .  S
C394        C948   1.463       .  S
C394        C483   1.485       .  S
C394        N432   1.354       .  A
N395        N425   1.321       .  A
N395       Co428   2.075       .  S
N396        N972   1.319       .  A
N396        N432   1.325       .  A
N397        N407   1.322       .  A
H398        C423   1.081       .  S
N399        N420   1.325       .  A
N400        N976   1.318       .  A
N400        N405   1.324       .  A
C401        C429   1.463       .  S
C401        C493   1.483       .  S
C401        N963   1.353   1_545  A
N402        C417   1.341       .  A
N402       Co424   2.084       .  S
C403        C964   1.462       .  S
C403        N431   1.341       .  A
C403        H437   1.081       .  S
N404        C944   1.350   1_545  A
N405        C959   1.352       .  A
C406        C961   1.462       .  S
C406        C503   1.482       .  S
C406        N427   1.351   1_565  A
N408        C434   1.338       .  A
N408       Co424   2.082       .  S
N409        C423   1.341       .  A
N409        N945   1.320       .  A
N410        N438   1.324       .  A
N410       Co428   2.079       .  S
H411        C434   1.081       .  S
H412        C429   1.080       .  S
N414        N954   1.319   1_545  A
N414       Co428   2.079       .  S
N415        N427   1.324       .  A
N415        N989   1.318   1_545  A
N415       Co424   2.081       .  S
C416        C430   1.461       .  S
C416        C443   1.481       .  S
C417        H421   1.080       .  S
N418        C429   1.339       .  A
N418        N958   1.318   1_545  A
N418       Co428   2.074       .  S
C422        C473   1.480       .  S
C422        N438   1.350   1_554  A
N425        C436   1.349   1_556  A
C426        C463   1.476       .  S
Co428      Cl435   2.448       .  S
N431        N973   1.318       .  A
Cl435      Co670   2.450   1_546  S
Cl435      Co951   2.451   1_545  S
C436        C453   1.480       .  S
C439        H446   1.083       .  S
C439        C444   1.400       .  A
C440        C441   1.408       .  A
C441        C442   1.398       .  A
C441        F448   1.356       .  S
C442        H447   1.083       .  S
C442        C443   1.404       .  A
C444        F445   1.357       .  S
C449        H456   1.083       .  S
C449        C454   1.396       .  A
C450        C451   1.408       .  A
C451        C452   1.396       .  A
C451        F458   1.355       .  S
C452        H457   1.083       .  S
C452        C453   1.406   1_556  A
C454        F455   1.355       .  S
C459        H466   1.082       .  S
C459        C460   1.404   1_554  A
C459        C464   1.398       .  A
C460        C461   1.410       .  A
C461        C462   1.395       .  A
C461        F468   1.357       .  S
C462        H467   1.082       .  S
C462        C463   1.401       .  A
C463        C464   1.409   1_556  A
C464        F465   1.358       .  S
C469        H476   1.083       .  S
C469        C470   1.406   1_556  A
C469        C474   1.400       .  A
C471        C472   1.394       .  A
C471        F478   1.355       .  S
C472        H477   1.081       .  S
C473        C474   1.408   1_554  A
C474        F475   1.357       .  S
C479        H486   1.082       .  S
C479       C1038   1.404       .  A
C479        C484   1.397       .  A
C480       C1037   1.404       .  A
C480        C481   1.407       .  A
C481        C482   1.399       .  A
C481        F488   1.357       .  S
C482        H487   1.083       .  S
C482        C483   1.405       .  A
C483       C1042   1.410       .  A
C484       C1041   1.410       .  A
C484        F485   1.355       .  S
C489        H496   1.083       .  S
C489       C1048   1.405   1_545  A
C489        C494   1.397       .  A
C490       C1047   1.405       .  A
C490        C491   1.409       .  A
C491        C492   1.398       .  A
C491        F498   1.355       .  S
C492        H497   1.083       .  S
C492       C1051   1.404       .  A
C493       C1050   1.404   1_545  A
C493        C494   1.409       .  A
C494        F495   1.355       .  S
C499        H506   1.083       .  S
C499        C500   1.405   1_545  A
C499        C504   1.396       .  A
C500       C1059   1.409       .  A
C501       C1058   1.409       .  A
C501        C502   1.400       .  A
C501        F508   1.356       .  S
C502        H507   1.082       .  S
C502       C1061   1.405       .  A
C503       C1060   1.405       .  A
C503        C504   1.407   1_565  A
C504        F505   1.357       .  S
C509        H516   1.083       .  S
C509        C510   1.403       .  A
C509        C514   1.396       .  A
C510       C1069   1.406   1_545  A
C511       C1068   1.406       .  A
C511        C512   1.399       .  A
C511        F518   1.358       .  S
C512        H517   1.082       .  S
C512        C513   1.405       .  A
C513       C1072   1.408       .  A
C514       C1071   1.408       .  A
C514        F515   1.357       .  S
C519        H526   1.083       .  S
C519       C1636   1.406       .  A
C519        C524   1.400       .  A
C520       C1635   1.406   1_455  A
C520        C521   1.411       .  A
C521        C522   1.399       .  A
C521        F528   1.355       .  S
C522        H527   1.082       .  S
C522       C1639   1.404       .  A
C523       C1638   1.404       .  A
C523        C524   1.408       .  A
C524        F525   1.357       .  S
C529        H536   1.082       .  S
C529       C1646   1.403   1_455  A
C529        C534   1.395       .  A
C530       C1645   1.403       .  A
C530        C531   1.409       .  A
C531        C532   1.401       .  A
C531        F538   1.357       .  S
C532        H537   1.082       .  S
C532        C533   1.405       .  A
C533       C1650   1.408       .  A
C534       C1649   1.408   1_455  A
C534        F535   1.357       .  S
C539        H546   1.082       .  S
C539        C540   1.404       .  A
C539        C544   1.398       .  A
C540       C1657   1.408       .  A
C541       C1656   1.408   1_455  A
C541        C542   1.398       .  A
C541        F548   1.357       .  S
C542        H547   1.083       .  S
C542        C543   1.405   1_455  A
C543       C1660   1.409       .  A
C544       C1659   1.409       .  A
C544        F545   1.355       .  S
C549        H556   1.083       .  S
C549        C550   1.406   1_455  A
C549        C554   1.402       .  A
C550       C1667   1.407       .  A
C551       C1666   1.407       .  A
C551        C552   1.397       .  A
C551        F558   1.356       .  S
C552        H557   1.083       .  S
C552       C1669   1.405       .  A
C553       C1668   1.405   1_455  A
C553        C554   1.410       .  A
C554        F555   1.356       .  S
C559        C596   1.466       .  S
C559        C832   1.486       .  S
C559       N1693   1.352   1_455  A
N560        N577   1.323       .  A
N560       N1698   1.319       .  A
N560       Co597   2.087       .  S
C561        C599   1.465       .  S
C561        N586   1.341       .  A
C561        H606   1.080       .  S
H562        C603   1.080       .  S
C563       C1683   1.464       .  S
C563        N587   1.340       .  A
C563        H592   1.080       .  S
Co564       N582   2.085       .  S
Co564       N572   2.087       .  S
Co564       N604   2.087       .  S
Co564       N580   2.083       .  S
Co564      Cl608   2.450   1_455  S
N565        C603   1.341       .  A
N565       Co566   2.083       .  S
Co566       N569   2.085       .  S
Co566       N586   2.082       .  S
Co566       N573   2.082       .  S
C567       C1679   1.464       .  S
C567        C822   1.484       .  S
C567        N605   1.352   1_655  A
N568        N598   1.324       .  A
N568       Co601   2.085       .  S
N569       N1703   1.318   1_455  A
N569        N605   1.324       .  A
N570        N580   1.323       .  A
H571        C596   1.080       .  S
N572        N593   1.323       .  A
N573       N1707   1.319   1_455  A
N573        N578   1.322       .  A
C574        C602   1.465       .  S
C574        C812   1.482       .  S
C574       N1694   1.349       .  A
N575        C590   1.340       .  A
N575       Co597   2.083       .  S
C576       C1695   1.464       .  S
C576        N604   1.341       .  A
C576        H610   1.081       .  S
N577       C1675   1.352       .  A
N578       C1690   1.349   1_455  A
C579       C1692   1.464       .  S
C579        C802   1.485       .  S
C579        N600   1.351       .  A
N581        C607   1.340       .  A
N581       Co597   2.082       .  S
N582        C596   1.343       .  A
N582       N1676   1.319   1_455  A
N583        N611   1.324       .  A
N583       Co601   2.083       .  S
H584        C607   1.081       .  S
H585        C602   1.081       .  S
N587       N1685   1.318       .  A
N587       Co601   2.082       .  S
N588        N600   1.325       .  A
N588       N1720   1.319       .  A
N588       Co597   2.086       .  S
C589        C779   1.483       .  S
C589        N593   1.352       .  A
C590        C609   1.460       .  S
C590        H594   1.081       .  S
N591        C602   1.343       .  A
N591       N1689   1.319       .  A
N591       Co601   2.087       .  S
C595        C759   1.481       .  S
C595        N611   1.350   1_545  A
Co597     Cl1724   2.450       .  S
C599        C769   1.484       .  S
Co601     Cl1166   2.452   1_565  S
N604       N1704   1.319   1_455  A
Cl608     Co1713   2.450       .  S
Cl608     Co1159   2.452       .  S
C609        C789   1.476       .  S
C612        C928   1.462       .  S
C612        C749   1.483       .  S
C612        N630   1.354       .  A
N613        N630   1.325       .  A
N613        N914   1.318       .  A
N613       Co650   2.088       .  S
C614        C652   1.463       .  S
C614        N639   1.340       .  A
C614        H659   1.081       .  S
H615        C656   1.081       .  S
C616        C620   1.466       .  S
C616        N640   1.340       .  A
C616        H645   1.080       .  S
Co617       N635   2.075       .  S
Co617       N625   2.088       .  S
Co617       N657   2.086       .  S
Co617       N633   2.081       .  S
Co617     Cl2056   2.452   1_454  S
N618        C656   1.340       .  A
N618       N1741   1.319       .  A
N618       Co619   2.085       .  S
Co619       N622   2.082       .  S
Co619       N639   2.084       .  S
Co619       N626   2.086       .  S
Co619      Cl940   2.447   1_554  S
C620        C729   1.481       .  S
C620        N937   1.350       .  A
N621       N1744   1.318       .  A
N621        N651   1.326       .  A
N621       Co654   2.093       .  S
N622        N919   1.319   1_554  A
N622        N658   1.321       .  A
N623       C1768   1.350   1_455  A
N623        N633   1.324       .  A
H624        C649   1.079       .  S
N625       N1734   1.319   1_455  A
N625        N646   1.326       .  A
N626        N923   1.319   1_554  A
N626        N631   1.325       .  A
C627        C655   1.462       .  S
C627        C719   1.482       .  S
C627        N910   1.352       .  A
N628        C643   1.339       .  A
N628       N1737   1.318   1_455  A
N628       Co650   2.077       .  S
C629        C911   1.465   1_554  S
C629        N657   1.343       .  A
C629        H663   1.081       .  S
N631        C906   1.352   1_554  A
C632        C908   1.465       .  S
C632        C739   1.480       .  S
C632        N653   1.347       .  A
N633       N1755   1.319   1_455  A
N634        C660   1.340       .  A
N634       N1752   1.319   1_455  A
N634       Co650   2.087       .  S
N635        C649   1.336       .  A
N635        N892   1.318   1_554  A
N636       N1750   1.319       .  A
N636        N664   1.324       .  A
N636       Co654   2.081       .  S
H637        C660   1.081       .  S
H638        C655   1.081       .  S
N639       N1749   1.319       .  A
N640        N901   1.319       .  A
N640       Co654   2.079       .  S
N641        N653   1.321       .  A
N641        N936   1.319       .  A
N641       Co650   2.075       .  S
C642       C1772   1.464       .  S
C642        C829   1.484       .  S
C642        N646   1.352   1_655  A
C643        C662   1.464       .  S
C643        H647   1.079       .  S
N644        C655   1.339       .  A
N644        N905   1.319       .  A
N644       Co654   2.082       .  S
C648       C1776   1.464       .  S
C648        C809   1.481       .  S
C648        N664   1.350       .  A
C649        C891   1.462       .  S
Co650     Cl1777   2.448   1_455  S
N651       C1778   1.355       .  A
C652        C819   1.481       .  S
C652       N1739   1.350       .  A
Co654      Cl661   2.452       .  S
C656       C1758   1.464       .  S
N657        N920   1.319   1_554  A
N658        C899   1.350   1_554  A
C660       C1764   1.464   1_455  S
Cl661     Co2012   2.452       .  S
Cl661      Co898   2.447       .  S
Cl661     Co1766   2.448       .  S
C662        C799   1.488       .  S
C662       N1767   1.355   1_455  A
C665        C702   1.462       .  S
C665        C792   1.479   1_565  S
N666        N683   1.323       .  A
N666       Co703   2.085       .  S
C667        C705   1.464       .  S
C667        N692   1.341       .  A
C667        H712   1.081       .  S
H668        C709   1.081       .  S
C669        N693   1.338       .  A
C669        H698   1.080       .  S
Co670       N688   2.083       .  S
Co670       N678   2.087       .  S
Co670       N710   2.084       .  S
Co670       N686   2.073       .  S
N671        C709   1.340       .  A
N671        N957   1.320       .  A
N671       Co672   2.084       .  S
Co672       N675   2.092       .  S
Co672       N692   2.089       .  S
Co672       N679   2.087       .  S
C673        C762   1.485       .  S
C673        N711   1.354   1_545  A
N674        N960   1.318       .  A
N674        N704   1.321       .  A
N674       Co707   2.075       .  S
N675        N711   1.325       .  A
N676        C984   1.347   1_554  A
N676        N686   1.322       .  A
H677        C702   1.081       .  S
N678        N950   1.320   1_554  A
N678        N699   1.325       .  A
N679        N684   1.324       .  A
C680        C708   1.462       .  S
C680        C772   1.482       .  S
N681        C696   1.341       .  A
N681        N953   1.318   1_554  A
N681       Co703   2.084       .  S
C682        N710   1.341       .  A
C682        H716   1.081       .  S
C685        C782   1.482       .  S
C685        N706   1.351       .  A
N686        N971   1.320   1_554  A
N687        C713   1.338       .  A
N687        N968   1.319   1_554  A
N687       Co703   2.082       .  S
N688        C702   1.341       .  A
N689        N966   1.319       .  A
N689        N717   1.324       .  A
N689       Co707   2.079       .  S
H690        C713   1.081       .  S
H691        C708   1.080       .  S
N692        N965   1.320       .  A
N693       Co707   2.079       .  S
N694        N706   1.324       .  A
N694       Co703   2.081       .  S
C695        C709   1.461       .  S
C695        C722   1.481       .  S
C695        N978   1.351       .  A
C696        C994   1.466       .  S
C696        H700   1.080       .  S
N697        C708   1.339       .  A
N697       Co707   2.074       .  S
N699        C974   1.351   1_554  A
C701        C992   1.463       .  S
C701        C752   1.480       .  S
C701        N717   1.350       .  A
Co703      Cl993   2.451   1_554  S
N704        C715   1.349       .  A
C705        C742   1.476       .  S
C705        N955   1.347       .  A
Co707      Cl714   2.448       .  S
C713        C980   1.463       .  S
Cl714      Co982   2.451       .  S
C715        C975   1.466       .  S
C715        C732   1.480       .  S
C718        H725   1.083       .  S
C718        C998   1.405   1_554  A
C718        C723   1.400       .  A
C719        C997   1.405       .  A
C719        C720   1.408       .  A
C720        C721   1.398       .  A
C720        F727   1.356       .  S
C721        H726   1.083       .  S
C721        C722   1.404       .  A
C722       C1002   1.408       .  A
C723       C1001   1.408   1_554  A
C723        F724   1.357       .  S
C728        H735   1.083       .  S
C728       C1008   1.406   1_554  A
C728        C733   1.396       .  A
C729       C1007   1.406       .  A
C729        C730   1.408       .  A
C730        C731   1.396       .  A
C730        F737   1.355       .  S
C731        H736   1.083       .  S
C731        C732   1.406       .  A
C732       C1012   1.406       .  A
C733       C1011   1.406       .  A
C733        F734   1.355       .  S
C738        H745   1.082       .  S
C738        C739   1.404       .  A
C738        C743   1.398       .  A
C739        C740   1.410       .  A
C740        C741   1.395       .  A
C740        F747   1.357       .  S
C741        H746   1.082       .  S
C741        C742   1.401       .  A
C742        C743   1.409       .  A
C743        F744   1.358       .  S
C748        H755   1.083       .  S
C748        C749   1.406       .  A
C748        C753   1.400       .  A
C749       C1029   1.409       .  A
C750       C1028   1.409       .  A
C750        C751   1.394       .  A
C750        F757   1.354       .  S
C751        H756   1.081       .  S
C751       C1031   1.402       .  A
C752       C1030   1.402       .  A
C752        C753   1.408       .  A
C753        F754   1.357       .  S
C758        H765   1.082       .  S
C758        C763   1.397       .  A
C759        C760   1.407   1_545  A
C760        C761   1.399       .  A
C760        F767   1.357       .  S
C761        H766   1.083       .  S
C761        C762   1.405   1_565  A
C763        F764   1.355       .  S
C768        H775   1.083       .  S
C768        C773   1.397       .  A
C769        C770   1.409       .  A
C770        C771   1.398       .  A
C770        F777   1.355       .  S
C771        H776   1.083       .  S
C772        C773   1.409       .  A
C773        F774   1.355       .  S
C778        H785   1.083       .  S
C778        C779   1.405       .  A
C778        C783   1.396       .  A
C780        C781   1.400       .  A
C780        F787   1.356       .  S
C781        H786   1.082       .  S
C782        C783   1.407       .  A
C783        F784   1.357       .  S
C788        H795   1.083       .  S
C788        C789   1.403       .  A
C788        C793   1.396       .  A
C790        C791   1.399       .  A
C790        F797   1.358       .  S
C791        H796   1.082       .  S
C791        C792   1.405   1_565  A
C793        F794   1.357       .  S
C798        H805   1.083       .  S
C798       C1915   1.406       .  A
C798        C803   1.400       .  A
C799       C1914   1.406   1_455  A
C799        C800   1.411       .  A
C800        C801   1.399       .  A
C800        F807   1.355       .  S
C801        H806   1.082       .  S
C801       C1918   1.404       .  A
C802       C1917   1.404       .  A
C802        C803   1.408       .  A
C803        F804   1.357       .  S
C808        H815   1.082       .  S
C808       C1925   1.403   1_455  A
C808        C813   1.395       .  A
C809       C1924   1.403       .  A
C809        C810   1.409       .  A
C810        C811   1.401       .  A
C810        F817   1.357       .  S
C811        H816   1.082       .  S
C811        C812   1.405       .  A
C812       C1929   1.408       .  A
C813       C1928   1.408   1_455  A
C813        F814   1.357       .  S
C818        H825   1.082       .  S
C818        C819   1.404       .  A
C818        C823   1.398       .  A
C819       C1936   1.408       .  A
C820       C1935   1.408   1_455  A
C820        C821   1.398       .  A
C820        F827   1.357       .  S
C821        H826   1.083       .  S
C821        C822   1.405   1_455  A
C822       C1939   1.409       .  A
C823       C1938   1.409       .  A
C823        F824   1.355       .  S
C828        H835   1.083       .  S
C828        C829   1.406   1_455  A
C828        C833   1.402       .  A
C829       C1946   1.407       .  A
C830       C1945   1.407       .  A
C830        C831   1.397       .  A
C830        F837   1.356       .  S
C831        H836   1.083       .  S
C831       C1948   1.405       .  A
C832       C1947   1.405   1_455  A
C832        C833   1.410       .  A
C833        F834   1.356       .  S
C838        C875   1.466       .  S
C838       C1111   1.486       .  S
C838       N1972   1.352   1_455  A
N839        N856   1.323       .  A
N839       N1977   1.319       .  A
N839       Co876   2.087       .  S
C840        C878   1.465       .  S
C840        N865   1.341       .  A
C840        H885   1.080       .  S
H841        C882   1.080       .  S
C842       C1962   1.464       .  S
C842        N866   1.340       .  A
C842        H871   1.080       .  S
Co843       N861   2.085       .  S
Co843       N851   2.087       .  S
Co843       N883   2.087       .  S
Co843       N859   2.083       .  S
Co843      Cl887   2.450   1_455  S
N844        C882   1.341       .  A
N844       Co845   2.083       .  S
Co845       N848   2.085       .  S
Co845       N865   2.082       .  S
Co845       N852   2.082       .  S
C846       C1958   1.464       .  S
C846       C1101   1.484       .  S
C846        N884   1.352   1_655  A
N847        N877   1.324       .  A
N847       Co880   2.085       .  S
N848       N1982   1.318   1_455  A
N848        N884   1.324       .  A
N849        N859   1.323       .  A
H850        C875   1.080       .  S
N851        N872   1.323       .  A
N852       N1986   1.319   1_455  A
N852        N857   1.322       .  A
C853        C881   1.465       .  S
C853       C1091   1.482       .  S
C853       N1973   1.349       .  A
N854        C869   1.340       .  A
N854       Co876   2.083       .  S
C855       C1974   1.464       .  S
C855        N883   1.341       .  A
C855        H889   1.081       .  S
N856       C1954   1.352       .  A
N857       C1969   1.349   1_455  A
C858       C1971   1.464       .  S
C858       C1081   1.485       .  S
C858        N879   1.351       .  A
N860        C886   1.340       .  A
N860       Co876   2.082       .  S
N861        C875   1.343       .  A
N861       N1955   1.319   1_455  A
N862        N890   1.324       .  A
N862       Co880   2.083       .  S
H863        C886   1.081       .  S
H864        C881   1.081       .  S
N866       N1964   1.318       .  A
N866       Co880   2.082       .  S
N867        N879   1.325       .  A
N867       N1999   1.319       .  A
N867       Co876   2.086       .  S
C868       C1058   1.483       .  S
C868        N872   1.352       .  A
C869        C888   1.460       .  S
C869        H873   1.081       .  S
N870        C881   1.343       .  A
N870       N1968   1.319       .  A
N870       Co880   2.087       .  S
C874       C1038   1.481       .  S
C874        N890   1.350   1_545  A
Co876     Cl2003   2.450       .  S
C878       C1048   1.484       .  S
Co880     Cl1445   2.452   1_565  S
N883       N1983   1.319   1_455  A
Cl887     Co1992   2.450       .  S
Cl887     Co1438   2.452       .  S
C888       C1068   1.476       .  S
C891       C1028   1.483       .  S
C891        N909   1.354   1_554  A
N892        N909   1.325       .  A
N892       Co929   2.088       .  S
C893        C931   1.463       .  S
C893        N918   1.340       .  A
C893        H938   1.081       .  S
H894        C935   1.081       .  S
C895        C899   1.466       .  S
C895        N919   1.340       .  A
C895        H924   1.080       .  S
Co896       N914   2.075       .  S
Co896       N904   2.088       .  S
Co896       N936   2.086       .  S
Co896       N912   2.081       .  S
Co896     Cl1777   2.452   1_455  S
N897        C935   1.340       .  A
N897       N2020   1.319       .  A
N897       Co898   2.085       .  S
Co898       N901   2.082       .  S
Co898       N918   2.084       .  S
Co898       N905   2.086       .  S
C899       C1008   1.481       .  S
N900       N2023   1.318       .  A
N900        N930   1.326       .  A
N900       Co933   2.093       .  S
N901        N937   1.321       .  A
N902       C2047   1.350   1_455  A
N902        N912   1.324       .  A
H903        C928   1.079       .  S
N904       N2013   1.319   1_455  A
N904        N925   1.326       .  A
N905        N910   1.325       .  A
C906        C934   1.462       .  S
C906        C998   1.482       .  S
N907        C922   1.339       .  A
N907       N2016   1.318   1_455  A
N907       Co929   2.077       .  S
C908        N936   1.343       .  A
C908        H942   1.081       .  S
C911       C1018   1.480       .  S
C911        N932   1.347       .  A
N912       N2034   1.319   1_455  A
N913        C939   1.340       .  A
N913       N2031   1.319   1_455  A
N913       Co929   2.087       .  S
N914        C928   1.336       .  A
N915       N2029   1.319       .  A
N915        N943   1.324       .  A
N915       Co933   2.081       .  S
H916        C939   1.081       .  S
H917        C934   1.081       .  S
N918       N2028   1.319       .  A
N919       Co933   2.079       .  S
N920        N932   1.321       .  A
N920       Co929   2.075       .  S
C921       C2051   1.464       .  S
C921       C1108   1.484       .  S
C921        N925   1.352   1_655  A
C922        C941   1.464       .  S
C922        H926   1.079       .  S
N923        C934   1.339       .  A
N923       Co933   2.082       .  S
C927       C2055   1.464       .  S
C927       C1088   1.481       .  S
C927        N943   1.350       .  A
Co929     Cl2056   2.448   1_455  S
N930       C2057   1.355       .  A
C931       C1098   1.481       .  S
C931       N2018   1.350       .  A
Co933      Cl940   2.452       .  S
C935       C2037   1.464       .  S
C939       C2043   1.464   1_455  S
Cl940     Co1733   2.452   1_556  S
Cl940     Co2045   2.448       .  S
C941       C1078   1.488       .  S
C941       N2046   1.355   1_455  A
C944        C981   1.462       .  S
C944       C1071   1.479   1_565  S
N945        N962   1.323       .  A
N945       Co982   2.085       .  S
C946        C984   1.464       .  S
C946        N971   1.341       .  A
C946        H991   1.081       .  S
H947        C988   1.081       .  S
C948        N972   1.338       .  A
C948        H977   1.080       .  S
Co949       N967   2.083       .  S
Co949       N957   2.087       .  S
Co949       N989   2.084       .  S
Co949       N965   2.073       .  S
N950        C988   1.340       .  A
N950       Co951   2.084       .  S
Co951       N954   2.092       .  S
Co951       N971   2.089       .  S
Co951       N958   2.087       .  S
C952       C1041   1.485       .  S
C952        N990   1.354   1_545  A
N953        N983   1.321       .  A
N953       Co986   2.075       .  S
N954        N990   1.325       .  A
N955        N965   1.322       .  A
H956        C981   1.081       .  S
N957        N978   1.325       .  A
N958        N963   1.324       .  A
C959        C987   1.462       .  S
C959       C1051   1.482       .  S
N960        C975   1.341       .  A
N960       Co982   2.084       .  S
C961        N989   1.341       .  A
C961        H995   1.081       .  S
C964       C1061   1.482       .  S
C964        N985   1.351       .  A
N966        C992   1.338       .  A
N966       Co982   2.082       .  S
N967        C981   1.341       .  A
N968        N996   1.324       .  A
N968       Co986   2.079       .  S
H969        C992   1.081       .  S
H970        C987   1.080       .  S
N972       Co986   2.079       .  S
N973        N985   1.324       .  A
N973       Co982   2.081       .  S
C974        C988   1.461       .  S
C974       C1001   1.481       .  S
C975        H979   1.080       .  S
N976        C987   1.339       .  A
N976       Co986   2.074       .  S
C980       C1031   1.480       .  S
C980        N996   1.350   1_554  A
N983        C994   1.349   1_556  A
C984       C1021   1.476       .  S
Co986      Cl993   2.448       .  S
C994       C1011   1.480       .  S
C997       H1004   1.083       .  S
C997       C1002   1.400       .  A
C998        C999   1.408       .  A
C999       C1000   1.398       .  A
C999       F1006   1.356       .  S
C1000      H1005   1.083       .  S
C1000      C1001   1.404       .  A
C1002      F1003   1.357       .  S
C1007      H1014   1.083       .  S
C1007      C1012   1.396       .  A
C1008      C1009   1.408       .  A
C1009      C1010   1.396       .  A
C1009      F1016   1.355       .  S
C1010      H1015   1.083       .  S
C1010      C1011   1.406   1_556  A
C1012      F1013   1.355       .  S
C1017      H1024   1.082       .  S
C1017      C1018   1.404   1_554  A
C1017      C1022   1.398       .  A
C1018      C1019   1.410       .  A
C1019      C1020   1.395       .  A
C1019      F1026   1.357       .  S
C1020      H1025   1.082       .  S
C1020      C1021   1.401       .  A
C1021      C1022   1.409   1_556  A
C1022      F1023   1.358       .  S
C1027      H1034   1.083       .  S
C1027      C1028   1.406   1_556  A
C1027      C1032   1.400       .  A
C1029      C1030   1.394       .  A
C1029      F1036   1.354       .  S
C1030      H1035   1.081       .  S
C1031      C1032   1.408   1_554  A
C1032      F1033   1.357       .  S
C1037      H1044   1.082       .  S
C1037      C1042   1.397       .  A
C1038      C1039   1.407   1_545  A
C1039      C1040   1.399       .  A
C1039      F1046   1.357       .  S
C1040      H1045   1.083       .  S
C1040      C1041   1.405   1_565  A
C1042      F1043   1.355       .  S
C1047      H1054   1.083       .  S
C1047      C1052   1.397       .  A
C1048      C1049   1.409       .  A
C1049      C1050   1.398       .  A
C1049      F1056   1.355       .  S
C1050      H1055   1.083       .  S
C1051      C1052   1.409       .  A
C1052      F1053   1.355       .  S
C1057      H1064   1.083       .  S
C1057      C1058   1.405       .  A
C1057      C1062   1.396       .  A
C1059      C1060   1.400       .  A
C1059      F1066   1.356       .  S
C1060      H1065   1.082       .  S
C1061      C1062   1.407       .  A
C1062      F1063   1.357       .  S
C1067      H1074   1.083       .  S
C1067      C1068   1.403       .  A
C1067      C1072   1.396       .  A
C1069      C1070   1.399       .  A
C1069      F1076   1.358       .  S
C1070      H1075   1.082       .  S
C1070      C1071   1.405   1_565  A
C1072      F1073   1.357       .  S
C1077      H1084   1.083       .  S
C1077      C2194   1.406       .  A
C1077      C1082   1.400       .  A
C1078      C2193   1.406   1_455  A
C1078      C1079   1.411       .  A
C1079      C1080   1.399       .  A
C1079      F1086   1.355       .  S
C1080      H1085   1.082       .  S
C1080      C2197   1.404       .  A
C1081      C2196   1.404       .  A
C1081      C1082   1.408       .  A
C1082      F1083   1.357       .  S
C1087      H1094   1.082       .  S
C1087      C2204   1.403   1_455  A
C1087      C1092   1.395       .  A
C1088      C2203   1.403       .  A
C1088      C1089   1.409       .  A
C1089      C1090   1.401       .  A
C1089      F1096   1.357       .  S
C1090      H1095   1.082       .  S
C1090      C1091   1.405       .  A
C1091      C2208   1.408       .  A
C1092      C2207   1.408   1_455  A
C1092      F1093   1.357       .  S
C1097      H1104   1.082       .  S
C1097      C1098   1.404       .  A
C1097      C1102   1.398       .  A
C1098      C2215   1.408       .  A
C1099      C2214   1.408   1_455  A
C1099      C1100   1.398       .  A
C1099      F1106   1.357       .  S
C1100      H1105   1.083       .  S
C1100      C1101   1.405   1_455  A
C1101      C2218   1.409       .  A
C1102      C2217   1.409       .  A
C1102      F1103   1.355       .  S
C1107      H1114   1.083       .  S
C1107      C1108   1.406   1_455  A
C1107      C1112   1.402       .  A
C1108      C2225   1.407       .  A
C1109      C2224   1.407       .  A
C1109      C1110   1.397       .  A
C1109      F1116   1.356       .  S
C1110      H1115   1.083       .  S
C1110      C2227   1.405       .  A
C1111      C2226   1.405   1_455  A
C1111      C1112   1.410       .  A
C1112      F1113   1.356       .  S
C1117      C1154   1.466       .  S
C1117      C1390   1.486       .  S
N1118      N1135   1.323       .  A
N1118     Co1155   2.087       .  S
C1119      C1157   1.465       .  S
C1119      N1144   1.341       .  A
C1119      H1164   1.080       .  S
H1120      C1161   1.080       .  S
C1121      N1145   1.340       .  A
C1121      H1150   1.080       .  S
Co1122     N1140   2.085       .  S
Co1122     N1130   2.087       .  S
Co1122     N1162   2.087       .  S
Co1122     N1138   2.083       .  S
Co1122    Cl1166   2.450       .  S
N1123      C1161   1.341       .  A
N1123      N1688   1.319       .  A
N1123     Co1124   2.083       .  S
Co1124     N1127   2.085       .  S
Co1124     N1144   2.082       .  S
Co1124     N1131   2.082       .  S
Co1124    Cl1724   2.449       .  S
C1125      C1380   1.484       .  S
C1125      N1163   1.352       .  A
N1126      N1691   1.320       .  A
N1126      N1156   1.324       .  A
N1126     Co1159   2.085       .  S
N1127      N1163   1.324       .  A
N1128      C1715   1.351   1_545  A
N1128      N1138   1.323       .  A
H1129      C1154   1.080       .  S
N1130      N1681   1.319   1_545  A
N1130      N1151   1.323       .  A
N1131      N1136   1.322       .  A
C1132      C1160   1.465       .  S
C1132      C1370   1.482       .  S
N1133      C1148   1.340       .  A
N1133      N1684   1.320   1_545  A
N1133     Co1155   2.083       .  S
C1134      N1162   1.341       .  A
C1134      H1168   1.081       .  S
C1137      C1360   1.485       .  S
C1137      N1158   1.351   1_455  A
N1138      N1702   1.318   1_545  A
N1139      C1165   1.340       .  A
N1139      N1699   1.319   1_545  A
N1139     Co1155   2.082       .  S
N1140      C1154   1.343       .  A
N1141      N1697   1.319       .  A
N1141      N1169   1.324       .  A
N1141     Co1159   2.083       .  S
H1142      C1165   1.081       .  S
H1143      C1160   1.081       .  S
N1144      N1696   1.318       .  A
N1145     Co1159   2.082       .  S
N1146      N1158   1.325       .  A
N1146     Co1155   2.086       .  S
C1147      C1719   1.464       .  S
C1147      C1337   1.483       .  S
C1147      N1151   1.352   1_565  A
C1148      C1167   1.460       .  S
C1148      H1152   1.081       .  S
N1149      C1160   1.343       .  A
N1149     Co1159   2.087       .  S
C1153      C1723   1.463       .  S
C1153      C1317   1.481       .  S
C1153      N1169   1.350       .  A
N1156      C1725   1.350       .  A
C1157      C1327   1.484       .  S
C1157      N1686   1.351       .  A
C1161      C1705   1.464       .  S
C1165      C1711   1.463       .  S
Cl1166    Co1682   2.449   1_545  S
C1167      C1347   1.476       .  S
C1167      N1714   1.350   1_545  A
C1170      C1486   1.462       .  S
C1170      C1307   1.483       .  S
C1170      N1188   1.353       .  A
N1171      N1188   1.325       .  A
N1171      N1472   1.318       .  A
N1171     Co1208   2.088       .  S
C1172      C1210   1.463       .  S
C1172      N1197   1.340       .  A
C1172      H1217   1.081       .  S
H1173      C1214   1.081       .  S
C1174      C1178   1.466       .  S
C1174      N1198   1.340       .  A
C1174      H1203   1.080       .  S
Co1175     N1193   2.075       .  S
Co1175     N1183   2.088       .  S
Co1175     N1215   2.086       .  S
Co1175     N1191   2.081       .  S
N1176      C1214   1.340       .  A
N1176     Co1177   2.085       .  S
Co1177     N1180   2.082       .  S
Co1177     N1197   2.084       .  S
Co1177     N1184   2.086       .  S
Co1177    Cl1498   2.447   1_554  S
C1178      C1287   1.481       .  S
C1178      N1495   1.350       .  A
N1179      N1209   1.326       .  A
N1179     Co1212   2.093       .  S
N1180      N1477   1.319   1_554  A
N1180      N1216   1.321       .  A
N1181      N1191   1.324       .  A
H1182      C1207   1.079       .  S
N1183      N1204   1.326       .  A
N1184      N1481   1.319   1_554  A
N1184      N1189   1.325       .  A
C1185      C1213   1.462       .  S
C1185      C1277   1.482       .  S
C1185      N1468   1.352       .  A
N1186      C1201   1.339       .  A
N1186     Co1208   2.077       .  S
C1187      C1469   1.465   1_554  S
C1187      N1215   1.343       .  A
C1187      H1221   1.081       .  S
N1189      C1464   1.352   1_554  A
C1190      C1466   1.465       .  S
C1190      C1297   1.479       .  S
C1190      N1211   1.347       .  A
N1192      C1218   1.340       .  A
N1192     Co1208   2.087       .  S
N1193      C1207   1.336       .  A
N1193      N1450   1.318   1_554  A
N1194      N1222   1.324       .  A
N1194     Co1212   2.081       .  S
H1195      C1218   1.081       .  S
H1196      C1213   1.081       .  S
N1198      N1459   1.319       .  A
N1198     Co1212   2.079       .  S
N1199      N1211   1.321       .  A
N1199      N1494   1.319       .  A
N1199     Co1208   2.075       .  S
C1200      C1387   1.484       .  S
C1200      N1204   1.352       .  A
C1201      C1220   1.464       .  S
C1201      H1205   1.079       .  S
N1202      C1213   1.339       .  A
N1202      N1463   1.319       .  A
N1202     Co1212   2.082       .  S
C1206      C1367   1.481       .  S
C1206      N1222   1.350       .  A
C1207      C1449   1.462       .  S
C1210      C1377   1.481       .  S
Co1212    Cl1219   2.452       .  S
N1215      N1478   1.319   1_554  A
N1216      C1457   1.350   1_554  A
Cl1219    Co1456   2.447       .  S
C1220      C1357   1.488       .  S
C1223      C1260   1.462       .  S
C1223      C1350   1.480       .  S
C1223      N1799   1.350       .  A
N1224      N1241   1.323       .  A
N1224      N1804   1.320   1_545  A
N1224     Co1261   2.085       .  S
C1225      C1263   1.464       .  S
C1225      N1250   1.341       .  A
C1225      H1270   1.081       .  S
H1226      C1267   1.081       .  S
C1227      C1789   1.463       .  S
C1227      N1251   1.338       .  A
C1227      H1256   1.080       .  S
Co1228     N1246   2.083       .  S
Co1228     N1236   2.087       .  S
Co1228     N1268   2.084       .  S
Co1228     N1244   2.073       .  S
Co1228    Cl2109   2.450   1_554  S
N1229      C1267   1.340       .  A
N1229      N1515   1.320       .  A
N1229     Co1230   2.084       .  S
Co1230     N1233   2.092       .  S
Co1230     N1250   2.089       .  S
Co1230     N1237   2.087       .  S
Co1230    Cl1830   2.451       .  S
C1231      C1785   1.463       .  S
C1231      C1320   1.485       .  S
C1231      N1269   1.354       .  A
N1232      N1518   1.318       .  A
N1232      N1262   1.321       .  A
N1232     Co1265   2.075       .  S
N1233      N1809   1.319       .  A
N1233      N1269   1.325       .  A
N1234      C1542   1.347   1_554  A
N1234      N1244   1.322       .  A
H1235      C1260   1.081       .  S
N1236      N1508   1.320   1_554  A
N1236      N1257   1.325       .  A
N1237      N1813   1.318       .  A
N1237      N1242   1.324       .  A
C1238      C1266   1.463       .  S
C1238      C1330   1.483       .  S
C1238      N1800   1.353   1_545  A
N1239      C1254   1.341       .  A
N1239      N1511   1.318   1_554  A
N1239     Co1261   2.084       .  S
C1240      C1801   1.462       .  S
C1240      N1268   1.341       .  A
C1240      H1274   1.081       .  S
N1241      C1781   1.350   1_545  A
N1242      C1796   1.352       .  A
C1243      C1798   1.462       .  S
C1243      C1340   1.482       .  S
C1243      N1264   1.351   1_565  A
N1244      N1529   1.320   1_554  A
N1245      C1271   1.338       .  A
N1245      N1526   1.319   1_554  A
N1245     Co1261   2.082       .  S
N1246      C1260   1.341       .  A
N1246      N1782   1.320       .  A
N1247      N1524   1.319       .  A
N1247      N1275   1.324       .  A
N1247     Co1265   2.079       .  S
H1248      C1271   1.081       .  S
H1249      C1266   1.080       .  S
N1250      N1523   1.320       .  A
N1251      N1791   1.319   1_545  A
N1251     Co1265   2.079       .  S
N1252      N1264   1.324       .  A
N1252      N1826   1.318   1_545  A
N1252     Co1261   2.081       .  S
C1253      C1267   1.461       .  S
C1253      C1280   1.481       .  S
C1253      N1536   1.351       .  A
C1254      C1552   1.466       .  S
C1254      H1258   1.080       .  S
N1255      C1266   1.339       .  A
N1255      N1795   1.318   1_545  A
N1255     Co1265   2.074       .  S
N1257      C1532   1.351   1_554  A
C1259      C1550   1.463       .  S
C1259      C1310   1.480       .  S
C1259      N1275   1.350       .  A
Co1261    Cl1551   2.451   1_554  S
N1262      C1273   1.349       .  A
C1263      C1300   1.476       .  S
C1263      N1513   1.347       .  A
Co1265    Cl1272   2.448       .  S
N1268      N1810   1.318       .  A
C1271      C1538   1.463       .  S
Cl1272    Co2065   2.450   1_545  S
Cl1272    Co1788   2.451   1_545  S
Cl1272    Co1540   2.451       .  S
C1273      C1533   1.466       .  S
C1273      C1290   1.480       .  S
C1276      H1283   1.083       .  S
C1276      C1556   1.405   1_554  A
C1276      C1281   1.400       .  A
C1277      C1555   1.405       .  A
C1277      C1278   1.408       .  A
C1278      C1279   1.398       .  A
C1278      F1285   1.356       .  S
C1279      H1284   1.083       .  S
C1279      C1280   1.404       .  A
C1280      C1560   1.408       .  A
C1281      C1559   1.408   1_554  A
C1281      F1282   1.357       .  S
C1286      H1293   1.083       .  S
C1286      C1566   1.406   1_554  A
C1286      C1291   1.396       .  A
C1287      C1565   1.406       .  A
C1287      C1288   1.408       .  A
C1288      C1289   1.396       .  A
C1288      F1295   1.355       .  S
C1289      H1294   1.083       .  S
C1289      C1290   1.406       .  A
C1290      C1570   1.406       .  A
C1291      C1569   1.406       .  A
C1291      F1292   1.355       .  S
C1296      H1303   1.082       .  S
C1296      C1297   1.404       .  A
C1296      C1301   1.398       .  A
C1297      C1298   1.410       .  A
C1298      C1299   1.395       .  A
C1298      F1305   1.357       .  S
C1299      H1304   1.082       .  S
C1299      C1300   1.401       .  A
C1300      C1301   1.409       .  A
C1301      F1302   1.358       .  S
C1306      H1313   1.083       .  S
C1306      C1307   1.406       .  A
C1306      C1311   1.400       .  A
C1307      C1587   1.409       .  A
C1308      C1586   1.409       .  A
C1308      C1309   1.394       .  A
C1308      F1315   1.355       .  S
C1309      H1314   1.081       .  S
C1309      C1589   1.402       .  A
C1310      C1588   1.402       .  A
C1310      C1311   1.408       .  A
C1311      F1312   1.357       .  S
C1316      H1323   1.082       .  S
C1316      C1875   1.404       .  A
C1316      C1321   1.397       .  A
C1317      C1874   1.404       .  A
C1317      C1318   1.407       .  A
C1318      C1319   1.399       .  A
C1318      F1325   1.357       .  S
C1319      H1324   1.083       .  S
C1319      C1320   1.405       .  A
C1320      C1879   1.410       .  A
C1321      C1878   1.410       .  A
C1321      F1322   1.355       .  S
C1326      H1333   1.083       .  S
C1326      C1885   1.405   1_545  A
C1326      C1331   1.397       .  A
C1327      C1884   1.405       .  A
C1327      C1328   1.409       .  A
C1328      C1329   1.398       .  A
C1328      F1335   1.355       .  S
C1329      H1334   1.083       .  S
C1329      C1888   1.404       .  A
C1330      C1887   1.404   1_545  A
C1330      C1331   1.409       .  A
C1331      F1332   1.355       .  S
C1336      H1343   1.083       .  S
C1336      C1337   1.405   1_545  A
C1336      C1341   1.396       .  A
C1337      C1896   1.409       .  A
C1338      C1895   1.409       .  A
C1338      C1339   1.400       .  A
C1338      F1345   1.356       .  S
C1339      H1344   1.082       .  S
C1339      C1898   1.405       .  A
C1340      C1897   1.405       .  A
C1340      C1341   1.407   1_565  A
C1341      F1342   1.357       .  S
C1346      H1353   1.083       .  S
C1346      C1347   1.403       .  A
C1346      C1351   1.396       .  A
C1347      C1906   1.406   1_545  A
C1348      C1905   1.406       .  A
C1348      C1349   1.399       .  A
C1348      F1355   1.358       .  S
C1349      H1354   1.082       .  S
C1349      C1350   1.405       .  A
C1350      C1909   1.408       .  A
C1351      C1908   1.408       .  A
C1351      F1352   1.357       .  S
C1356      H1363   1.083       .  S
C1356      C1361   1.400       .  A
C1357      C1358   1.411       .  A
C1358      C1359   1.399       .  A
C1358      F1365   1.355       .  S
C1359      H1364   1.082       .  S
C1360      C1361   1.408   1_455  A
C1361      F1362   1.357       .  S
C1366      H1373   1.082       .  S
C1366      C1371   1.395       .  A
C1367      C1368   1.409       .  A
C1368      C1369   1.401       .  A
C1368      F1375   1.357       .  S
C1369      H1374   1.082       .  S
C1369      C1370   1.405       .  A
C1371      F1372   1.357       .  S
C1376      H1383   1.082       .  S
C1376      C1377   1.404       .  A
C1376      C1381   1.398       .  A
C1378      C1379   1.398       .  A
C1378      F1385   1.357       .  S
C1379      H1384   1.083       .  S
C1379      C1380   1.405       .  A
C1381      F1382   1.355       .  S
C1386      H1393   1.083       .  S
C1386      C1387   1.406       .  A
C1386      C1391   1.402       .  A
C1388      C1389   1.397       .  A
C1388      F1395   1.356       .  S
C1389      H1394   1.083       .  S
C1390      C1391   1.410       .  A
C1391      F1392   1.356       .  S
C1396      C1433   1.466       .  S
C1396      C1669   1.486       .  S
N1397      N1414   1.323       .  A
N1397     Co1434   2.087       .  S
C1398      C1436   1.465       .  S
C1398      N1423   1.341       .  A
C1398      H1443   1.080       .  S
H1399      C1440   1.080       .  S
C1400      N1424   1.340       .  A
C1400      H1429   1.080       .  S
Co1401     N1419   2.085       .  S
Co1401     N1409   2.087       .  S
Co1401     N1441   2.087       .  S
Co1401     N1417   2.083       .  S
Co1401    Cl1445   2.450       .  S
N1402      C1440   1.341       .  A
N1402      N1967   1.319       .  A
N1402     Co1403   2.083       .  S
Co1403     N1406   2.085       .  S
Co1403     N1423   2.082       .  S
Co1403     N1410   2.082       .  S
Co1403    Cl2003   2.449       .  S
C1404      C1659   1.484       .  S
C1404      N1442   1.352       .  A
N1405      N1970   1.320       .  A
N1405      N1435   1.324       .  A
N1405     Co1438   2.085       .  S
N1406      N1442   1.324       .  A
N1407      C1994   1.351   1_545  A
N1407      N1417   1.323       .  A
H1408      C1433   1.080       .  S
N1409      N1960   1.319   1_545  A
N1409      N1430   1.323       .  A
N1410      N1415   1.322       .  A
C1411      C1439   1.465       .  S
C1411      C1649   1.482       .  S
N1412      C1427   1.340       .  A
N1412      N1963   1.320   1_545  A
N1412     Co1434   2.083       .  S
C1413      N1441   1.341       .  A
C1413      H1447   1.081       .  S
C1416      C1639   1.485       .  S
C1416      N1437   1.351   1_455  A
N1417      N1981   1.318   1_545  A
N1418      C1444   1.340       .  A
N1418      N1978   1.319   1_545  A
N1418     Co1434   2.082       .  S
N1419      C1433   1.343       .  A
N1420      N1976   1.319       .  A
N1420      N1448   1.324       .  A
N1420     Co1438   2.083       .  S
H1421      C1444   1.081       .  S
H1422      C1439   1.081       .  S
N1423      N1975   1.318       .  A
N1424     Co1438   2.082       .  S
N1425      N1437   1.325       .  A
N1425     Co1434   2.086       .  S
C1426      C1998   1.464       .  S
C1426      C1616   1.483       .  S
C1426      N1430   1.352   1_565  A
C1427      C1446   1.460       .  S
C1427      H1431   1.081       .  S
N1428      C1439   1.343       .  A
N1428     Co1438   2.087       .  S
C1432      C2002   1.463       .  S
C1432      C1596   1.481       .  S
C1432      N1448   1.350       .  A
N1435      C2004   1.350       .  A
C1436      C1606   1.484       .  S
C1436      N1965   1.351       .  A
C1440      C1984   1.464       .  S
C1444      C1990   1.463       .  S
Cl1445    Co1961   2.449   1_545  S
C1446      C1626   1.476       .  S
C1446      N1993   1.350   1_545  A
C1449      C1586   1.483       .  S
C1449      N1467   1.353   1_554  A
N1450      N1467   1.325       .  A
N1450     Co1487   2.088       .  S
C1451      C1489   1.463       .  S
C1451      N1476   1.340       .  A
C1451      H1496   1.081       .  S
H1452      C1493   1.081       .  S
C1453      C1457   1.466       .  S
C1453      N1477   1.340       .  A
C1453      H1482   1.080       .  S
Co1454     N1472   2.075       .  S
Co1454     N1462   2.088       .  S
Co1454     N1494   2.086       .  S
Co1454     N1470   2.081       .  S
N1455      C1493   1.340       .  A
N1455     Co1456   2.085       .  S
Co1456     N1459   2.082       .  S
Co1456     N1476   2.084       .  S
Co1456     N1463   2.086       .  S
C1457      C1566   1.481       .  S
N1458      N1488   1.326       .  A
N1458     Co1491   2.093       .  S
N1459      N1495   1.321       .  A
N1460      N1470   1.324       .  A
H1461      C1486   1.079       .  S
N1462      N1483   1.326       .  A
N1463      N1468   1.325       .  A
C1464      C1492   1.462       .  S
C1464      C1556   1.482       .  S
N1465      C1480   1.339       .  A
N1465     Co1487   2.077       .  S
C1466      N1494   1.343       .  A
C1466      H1500   1.081       .  S
C1469      C1576   1.479       .  S
C1469      N1490   1.347       .  A
N1471      C1497   1.340       .  A
N1471     Co1487   2.087       .  S
N1472      C1486   1.336       .  A
N1473      N1501   1.324       .  A
N1473     Co1491   2.081       .  S
H1474      C1497   1.081       .  S
H1475      C1492   1.081       .  S
N1477     Co1491   2.079       .  S
N1478      N1490   1.321       .  A
N1478     Co1487   2.075       .  S
C1479      C1666   1.484       .  S
C1479      N1483   1.352       .  A
C1480      C1499   1.464       .  S
C1480      H1484   1.079       .  S
N1481      C1492   1.339       .  A
N1481     Co1491   2.082       .  S
C1485      C1646   1.481       .  S
C1485      N1501   1.350       .  A
C1489      C1656   1.481       .  S
Co1491    Cl1498   2.452       .  S
C1499      C1636   1.488       .  S
C1502      C1539   1.462       .  S
C1502      C1629   1.480       .  S
C1502      N2078   1.350       .  A
N1503      N1520   1.323       .  A
N1503      N2083   1.320   1_545  A
N1503     Co1540   2.085       .  S
C1504      C1542   1.464       .  S
C1504      N1529   1.341       .  A
C1504      H1549   1.081       .  S
H1505      C1546   1.081       .  S
C1506      C2068   1.463       .  S
C1506      N1530   1.338       .  A
C1506      H1535   1.080       .  S
Co1507     N1525   2.083       .  S
Co1507     N1515   2.087       .  S
Co1507     N1547   2.084       .  S
Co1507     N1523   2.073       .  S
Co1507    Cl1830   2.450       .  S
N1508      C1546   1.340       .  A
N1508     Co1509   2.084       .  S
Co1509     N1512   2.092       .  S
Co1509     N1529   2.089       .  S
Co1509     N1516   2.087       .  S
Co1509    Cl2109   2.451       .  S
C1510      C2064   1.463       .  S
C1510      C1599   1.485       .  S
C1510      N1548   1.354       .  A
N1511      N1541   1.321       .  A
N1511     Co1544   2.075       .  S
N1512      N2088   1.319       .  A
N1512      N1548   1.325       .  A
N1513      N1523   1.322       .  A
H1514      C1539   1.081       .  S
N1515      N1536   1.325       .  A
N1516      N2092   1.318       .  A
N1516      N1521   1.324       .  A
C1517      C1545   1.463       .  S
C1517      C1609   1.483       .  S
C1517      N2079   1.353   1_545  A
N1518      C1533   1.341       .  A
N1518     Co1540   2.084       .  S
C1519      C2080   1.462       .  S
C1519      N1547   1.341       .  A
C1519      H1553   1.081       .  S
N1520      C2060   1.350   1_545  A
N1521      C2075   1.352       .  A
C1522      C2077   1.462       .  S
C1522      C1619   1.482       .  S
C1522      N1543   1.351   1_565  A
N1524      C1550   1.338       .  A
N1524     Co1540   2.082       .  S
N1525      C1539   1.341       .  A
N1525      N2061   1.320       .  A
N1526      N1554   1.324       .  A
N1526     Co1544   2.079       .  S
H1527      C1550   1.081       .  S
H1528      C1545   1.080       .  S
N1530      N2070   1.319   1_545  A
N1530     Co1544   2.079       .  S
N1531      N1543   1.324       .  A
N1531      N2105   1.318   1_545  A
N1531     Co1540   2.081       .  S
C1532      C1546   1.461       .  S
C1532      C1559   1.481       .  S
C1533      H1537   1.080       .  S
N1534      C1545   1.339       .  A
N1534      N2074   1.318   1_545  A
N1534     Co1544   2.074       .  S
C1538      C1589   1.480       .  S
C1538      N1554   1.350   1_554  A
N1541      C1552   1.349   1_556  A
C1542      C1579   1.476       .  S
Co1544    Cl1551   2.448       .  S
N1547      N2089   1.318       .  A
Cl1551    Co1786   2.450   1_546  S
Cl1551    Co2067   2.451   1_545  S
C1552      C1569   1.480       .  S
C1555      H1562   1.083       .  S
C1555      C1560   1.400       .  A
C1556      C1557   1.408       .  A
C1557      C1558   1.398       .  A
C1557      F1564   1.356       .  S
C1558      H1563   1.083       .  S
C1558      C1559   1.404       .  A
C1560      F1561   1.357       .  S
C1565      H1572   1.083       .  S
C1565      C1570   1.396       .  A
C1566      C1567   1.408       .  A
C1567      C1568   1.396       .  A
C1567      F1574   1.355       .  S
C1568      H1573   1.083       .  S
C1568      C1569   1.406   1_556  A
C1570      F1571   1.355       .  S
C1575      H1582   1.082       .  S
C1575      C1576   1.404   1_554  A
C1575      C1580   1.398       .  A
C1576      C1577   1.410       .  A
C1577      C1578   1.395       .  A
C1577      F1584   1.357       .  S
C1578      H1583   1.082       .  S
C1578      C1579   1.401       .  A
C1579      C1580   1.409   1_556  A
C1580      F1581   1.358       .  S
C1585      H1592   1.083       .  S
C1585      C1586   1.406   1_556  A
C1585      C1590   1.400       .  A
C1587      C1588   1.394       .  A
C1587      F1594   1.355       .  S
C1588      H1593   1.081       .  S
C1589      C1590   1.408   1_554  A
C1590      F1591   1.357       .  S
C1595      H1602   1.082       .  S
C1595      C2154   1.404       .  A
C1595      C1600   1.397       .  A
C1596      C2153   1.404       .  A
C1596      C1597   1.407       .  A
C1597      C1598   1.399       .  A
C1597      F1604   1.357       .  S
C1598      H1603   1.083       .  S
C1598      C1599   1.405       .  A
C1599      C2158   1.410       .  A
C1600      C2157   1.410       .  A
C1600      F1601   1.355       .  S
C1605      H1612   1.083       .  S
C1605      C2164   1.405   1_545  A
C1605      C1610   1.397       .  A
C1606      C2163   1.405       .  A
C1606      C1607   1.409       .  A
C1607      C1608   1.398       .  A
C1607      F1614   1.355       .  S
C1608      H1613   1.083       .  S
C1608      C2167   1.404       .  A
C1609      C2166   1.404   1_545  A
C1609      C1610   1.409       .  A
C1610      F1611   1.355       .  S
C1615      H1622   1.083       .  S
C1615      C1616   1.405   1_545  A
C1615      C1620   1.396       .  A
C1616      C2175   1.409       .  A
C1617      C2174   1.409       .  A
C1617      C1618   1.400       .  A
C1617      F1624   1.356       .  S
C1618      H1623   1.082       .  S
C1618      C2177   1.405       .  A
C1619      C2176   1.405       .  A
C1619      C1620   1.407   1_565  A
C1620      F1621   1.357       .  S
C1625      H1632   1.083       .  S
C1625      C1626   1.403       .  A
C1625      C1630   1.396       .  A
C1626      C2185   1.406   1_545  A
C1627      C2184   1.406       .  A
C1627      C1628   1.399       .  A
C1627      F1634   1.358       .  S
C1628      H1633   1.082       .  S
C1628      C1629   1.405       .  A
C1629      C2188   1.408       .  A
C1630      C2187   1.408       .  A
C1630      F1631   1.357       .  S
C1635      H1642   1.083       .  S
C1635      C1640   1.400       .  A
C1636      C1637   1.411       .  A
C1637      C1638   1.399       .  A
C1637      F1644   1.355       .  S
C1638      H1643   1.082       .  S
C1639      C1640   1.408   1_455  A
C1640      F1641   1.357       .  S
C1645      H1652   1.082       .  S
C1645      C1650   1.395       .  A
C1646      C1647   1.409       .  A
C1647      C1648   1.401       .  A
C1647      F1654   1.357       .  S
C1648      H1653   1.082       .  S
C1648      C1649   1.405       .  A
C1650      F1651   1.357       .  S
C1655      H1662   1.082       .  S
C1655      C1656   1.404       .  A
C1655      C1660   1.398       .  A
C1657      C1658   1.398       .  A
C1657      F1664   1.357       .  S
C1658      H1663   1.083       .  S
C1658      C1659   1.405       .  A
C1660      F1661   1.355       .  S
C1665      H1672   1.083       .  S
C1665      C1666   1.406       .  A
C1665      C1670   1.402       .  A
C1667      C1668   1.397       .  A
C1667      F1674   1.356       .  S
C1668      H1673   1.083       .  S
C1669      C1670   1.410       .  A
C1670      F1671   1.356       .  S
C1675      C1712   1.466       .  S
C1675      C1948   1.486       .  S
N1676      N1693   1.323       .  A
N1676     Co1713   2.087       .  S
C1677      C1715   1.465       .  S
C1677      N1702   1.341       .  A
C1677      H1722   1.080       .  S
H1678      C1719   1.080       .  S
C1679      N1703   1.340       .  A
C1679      H1708   1.080       .  S
Co1680     N1698   2.085       .  S
Co1680     N1688   2.087       .  S
Co1680     N1720   2.087       .  S
Co1680     N1696   2.083       .  S
Co1680    Cl1724   2.450       .  S
N1681      C1719   1.341       .  A
N1681     Co1682   2.083       .  S
Co1682     N1685   2.085       .  S
Co1682     N1702   2.082       .  S
Co1682     N1689   2.082       .  S
C1683      C1938   1.484       .  S
C1683      N1721   1.352       .  A
N1684      N1714   1.324       .  A
N1684     Co1717   2.085       .  S
N1685      N1721   1.324       .  A
N1686      N1696   1.323       .  A
H1687      C1712   1.080       .  S
N1688      N1709   1.323       .  A
N1689      N1694   1.322       .  A
C1690      C1718   1.465       .  S
C1690      C1928   1.482       .  S
N1691      C1706   1.340       .  A
N1691     Co1713   2.083       .  S
C1692      N1720   1.341       .  A
C1692      H1726   1.081       .  S
C1695      C1918   1.485       .  S
C1695      N1716   1.351   1_455  A
N1697      C1723   1.340       .  A
N1697     Co1713   2.082       .  S
N1698      C1712   1.343       .  A
N1699      N1727   1.324       .  A
N1699     Co1717   2.083       .  S
H1700      C1723   1.081       .  S
H1701      C1718   1.081       .  S
N1703     Co1717   2.082       .  S
N1704      N1716   1.325       .  A
N1704     Co1713   2.086       .  S
C1705      C1895   1.483       .  S
C1705      N1709   1.352       .  A
C1706      C1725   1.460       .  S
C1706      H1710   1.081       .  S
N1707      C1718   1.343       .  A
N1707     Co1717   2.087       .  S
C1711      C1875   1.481       .  S
C1711      N1727   1.350   1_545  A
C1715      C1885   1.484       .  S
C1725      C1905   1.476       .  S
C1728      C2044   1.462       .  S
C1728      C1865   1.483       .  S
C1728      N1746   1.354       .  A
N1729      N1746   1.325       .  A
N1729      N2030   1.318       .  A
N1729     Co1766   2.088       .  S
C1730      C1768   1.463       .  S
C1730      N1755   1.340       .  A
C1730      H1775   1.081       .  S
H1731      C1772   1.081       .  S
C1732      C1736   1.466       .  S
C1732      N1756   1.340       .  A
C1732      H1761   1.080       .  S
Co1733     N1751   2.075       .  S
Co1733     N1741   2.088       .  S
Co1733     N1773   2.086       .  S
Co1733     N1749   2.081       .  S
N1734      C1772   1.340       .  A
N1734     Co1735   2.085       .  S
Co1735     N1738   2.082       .  S
Co1735     N1755   2.084       .  S
Co1735     N1742   2.086       .  S
Co1735    Cl2056   2.447   1_554  S
C1736      C1845   1.481       .  S
C1736      N2053   1.350       .  A
N1737      N1767   1.326       .  A
N1737     Co1770   2.093       .  S
N1738      N2035   1.319   1_554  A
N1738      N1774   1.321       .  A
N1739      N1749   1.324       .  A
H1740      C1765   1.079       .  S
N1741      N1762   1.326       .  A
N1742      N2039   1.319   1_554  A
N1742      N1747   1.325       .  A
C1743      C1771   1.462       .  S
C1743      C1835   1.482       .  S
C1743      N2026   1.352       .  A
N1744      C1759   1.339       .  A
N1744     Co1766   2.077       .  S
C1745      C2027   1.465   1_554  S
C1745      N1773   1.343       .  A
C1745      H1779   1.081       .  S
N1747      C2022   1.352   1_554  A
C1748      C2024   1.465       .  S
C1748      C1855   1.480       .  S
C1748      N1769   1.347       .  A
N1750      C1776   1.340       .  A
N1750     Co1766   2.087       .  S
N1751      C1765   1.336       .  A
N1751      N2008   1.318   1_554  A
N1752      N1780   1.324       .  A
N1752     Co1770   2.081       .  S
H1753      C1776   1.081       .  S
H1754      C1771   1.081       .  S
N1756      N2017   1.319       .  A
N1756     Co1770   2.079       .  S
N1757      N1769   1.321       .  A
N1757      N2052   1.319       .  A
N1757     Co1766   2.075       .  S
C1758      C1945   1.484       .  S
C1758      N1762   1.352       .  A
C1759      C1778   1.464       .  S
C1759      H1763   1.079       .  S
N1760      C1771   1.339       .  A
N1760      N2021   1.319       .  A
N1760     Co1770   2.082       .  S
C1764      C1925   1.481       .  S
C1764      N1780   1.350       .  A
C1765      C2007   1.462       .  S
C1768      C1935   1.481       .  S
Co1770    Cl1777   2.452       .  S
N1773      N2036   1.319   1_554  A
N1774      C2015   1.350   1_554  A
Cl1777    Co2014   2.447       .  S
C1778      C1915   1.488       .  S
C1781      C1818   1.462       .  S
C1781      C1908   1.479   1_565  S
N1782      N1799   1.323       .  A
N1782     Co1819   2.085       .  S
C1783      C1821   1.464       .  S
C1783      N1808   1.341       .  A
C1783      H1828   1.081       .  S
H1784      C1825   1.081       .  S
C1785      N1809   1.338       .  A
C1785      H1814   1.080       .  S
Co1786     N1804   2.083       .  S
Co1786     N1794   2.087       .  S
Co1786     N1826   2.084       .  S
Co1786     N1802   2.073       .  S
N1787      C1825   1.340       .  A
N1787      N2073   1.320       .  A
N1787     Co1788   2.084       .  S
Co1788     N1791   2.092       .  S
Co1788     N1808   2.089       .  S
Co1788     N1795   2.087       .  S
C1789      C1878   1.485       .  S
C1789      N1827   1.354   1_545  A
N1790      N2076   1.318       .  A
N1790      N1820   1.321       .  A
N1790     Co1823   2.075       .  S
N1791      N1827   1.325       .  A
N1792      C2100   1.347   1_554  A
N1792      N1802   1.322       .  A
H1793      C1818   1.081       .  S
N1794      N2066   1.320   1_554  A
N1794      N1815   1.325       .  A
N1795      N1800   1.324       .  A
C1796      C1824   1.462       .  S
C1796      C1888   1.482       .  S
N1797      C1812   1.341       .  A
N1797      N2069   1.318   1_554  A
N1797     Co1819   2.084       .  S
C1798      N1826   1.341       .  A
C1798      H1832   1.081       .  S
C1801      C1898   1.482       .  S
C1801      N1822   1.351       .  A
N1802      N2087   1.320   1_554  A
N1803      C1829   1.338       .  A
N1803      N2084   1.319   1_554  A
N1803     Co1819   2.082       .  S
N1804      C1818   1.341       .  A
N1805      N2082   1.319       .  A
N1805      N1833   1.324       .  A
N1805     Co1823   2.079       .  S
H1806      C1829   1.081       .  S
H1807      C1824   1.080       .  S
N1808      N2081   1.320       .  A
N1809     Co1823   2.079       .  S
N1810      N1822   1.324       .  A
N1810     Co1819   2.081       .  S
C1811      C1825   1.461       .  S
C1811      C1838   1.481       .  S
C1811      N2094   1.351       .  A
C1812      C2110   1.466       .  S
C1812      H1816   1.080       .  S
N1813      C1824   1.339       .  A
N1813     Co1823   2.074       .  S
N1815      C2090   1.351   1_554  A
C1817      C2108   1.463       .  S
C1817      C1868   1.480       .  S
C1817      N1833   1.350       .  A
Co1819    Cl2109   2.451   1_554  S
N1820      C1831   1.349       .  A
C1821      C1858   1.476       .  S
C1821      N2071   1.347       .  A
Co1823    Cl1830   2.448       .  S
C1829      C2096   1.463       .  S
Cl1830    Co2098   2.451       .  S
C1831      C2091   1.466       .  S
C1831      C1848   1.480       .  S
C1834      H1841   1.083       .  S
C1834      C2114   1.405   1_554  A
C1834      C1839   1.400       .  A
C1835      C2113   1.405       .  A
C1835      C1836   1.408       .  A
C1836      C1837   1.398       .  A
C1836      F1843   1.356       .  S
C1837      H1842   1.083       .  S
C1837      C1838   1.404       .  A
C1838      C2118   1.408       .  A
C1839      C2117   1.408   1_554  A
C1839      F1840   1.357       .  S
C1844      H1851   1.083       .  S
C1844      C2124   1.406   1_554  A
C1844      C1849   1.396       .  A
C1845      C2123   1.406       .  A
C1845      C1846   1.408       .  A
C1846      C1847   1.396       .  A
C1846      F1853   1.355       .  S
C1847      H1852   1.083       .  S
C1847      C1848   1.406       .  A
C1848      C2128   1.406       .  A
C1849      C2127   1.406       .  A
C1849      F1850   1.355       .  S
C1854      H1861   1.082       .  S
C1854      C1855   1.404       .  A
C1854      C1859   1.398       .  A
C1855      C1856   1.410       .  A
C1856      C1857   1.395       .  A
C1856      F1863   1.357       .  S
C1857      H1862   1.082       .  S
C1857      C1858   1.401       .  A
C1858      C1859   1.409       .  A
C1859      F1860   1.358       .  S
C1864      H1871   1.083       .  S
C1864      C1865   1.406       .  A
C1864      C1869   1.400       .  A
C1865      C2145   1.409       .  A
C1866      C2144   1.409       .  A
C1866      C1867   1.394       .  A
C1866      F1873   1.354       .  S
C1867      H1872   1.081       .  S
C1867      C2147   1.402       .  A
C1868      C2146   1.402       .  A
C1868      C1869   1.408       .  A
C1869      F1870   1.357       .  S
C1874      H1881   1.082       .  S
C1874      C1879   1.397       .  A
C1875      C1876   1.407   1_545  A
C1876      C1877   1.399       .  A
C1876      F1883   1.357       .  S
C1877      H1882   1.083       .  S
C1877      C1878   1.405   1_565  A
C1879      F1880   1.355       .  S
C1884      H1891   1.083       .  S
C1884      C1889   1.397       .  A
C1885      C1886   1.409       .  A
C1886      C1887   1.398       .  A
C1886      F1893   1.355       .  S
C1887      H1892   1.083       .  S
C1888      C1889   1.409       .  A
C1889      F1890   1.355       .  S
C1894      H1901   1.083       .  S
C1894      C1895   1.405       .  A
C1894      C1899   1.396       .  A
C1896      C1897   1.400       .  A
C1896      F1903   1.356       .  S
C1897      H1902   1.082       .  S
C1898      C1899   1.407       .  A
C1899      F1900   1.357       .  S
C1904      H1911   1.083       .  S
C1904      C1905   1.403       .  A
C1904      C1909   1.396       .  A
C1906      C1907   1.399       .  A
C1906      F1913   1.358       .  S
C1907      H1912   1.082       .  S
C1907      C1908   1.405   1_565  A
C1909      F1910   1.357       .  S
C1914      H1921   1.083       .  S
C1914      C1919   1.400       .  A
C1915      C1916   1.411       .  A
C1916      C1917   1.399       .  A
C1916      F1923   1.355       .  S
C1917      H1922   1.082       .  S
C1918      C1919   1.408   1_455  A
C1919      F1920   1.357       .  S
C1924      H1931   1.082       .  S
C1924      C1929   1.395       .  A
C1925      C1926   1.409       .  A
C1926      C1927   1.401       .  A
C1926      F1933   1.357       .  S
C1927      H1932   1.082       .  S
C1927      C1928   1.405       .  A
C1929      F1930   1.357       .  S
C1934      H1941   1.082       .  S
C1934      C1935   1.404       .  A
C1934      C1939   1.398       .  A
C1936      C1937   1.398       .  A
C1936      F1943   1.357       .  S
C1937      H1942   1.083       .  S
C1937      C1938   1.405       .  A
C1939      F1940   1.355       .  S
C1944      H1951   1.083       .  S
C1944      C1945   1.406       .  A
C1944      C1949   1.402       .  A
C1946      C1947   1.397       .  A
C1946      F1953   1.356       .  S
C1947      H1952   1.083       .  S
C1948      C1949   1.410       .  A
C1949      F1950   1.356       .  S
C1954      C1991   1.466       .  S
C1954      C2227   1.486       .  S
N1955      N1972   1.323       .  A
N1955     Co1992   2.087       .  S
C1956      C1994   1.465       .  S
C1956      N1981   1.341       .  A
C1956      H2001   1.080       .  S
H1957      C1998   1.080       .  S
C1958      N1982   1.340       .  A
C1958      H1987   1.080       .  S
Co1959     N1977   2.085       .  S
Co1959     N1967   2.087       .  S
Co1959     N1999   2.087       .  S
Co1959     N1975   2.083       .  S
Co1959    Cl2003   2.450       .  S
N1960      C1998   1.341       .  A
N1960     Co1961   2.083       .  S
Co1961     N1964   2.085       .  S
Co1961     N1981   2.082       .  S
Co1961     N1968   2.082       .  S
C1962      C2217   1.484       .  S
C1962      N2000   1.352       .  A
N1963      N1993   1.324       .  A
N1963     Co1996   2.085       .  S
N1964      N2000   1.324       .  A
N1965      N1975   1.323       .  A
H1966      C1991   1.080       .  S
N1967      N1988   1.323       .  A
N1968      N1973   1.322       .  A
C1969      C1997   1.465       .  S
C1969      C2207   1.482       .  S
N1970      C1985   1.340       .  A
N1970     Co1992   2.083       .  S
C1971      N1999   1.341       .  A
C1971      H2005   1.081       .  S
C1974      C2197   1.485       .  S
C1974      N1995   1.351   1_455  A
N1976      C2002   1.340       .  A
N1976     Co1992   2.082       .  S
N1977      C1991   1.343       .  A
N1978      N2006   1.324       .  A
N1978     Co1996   2.083       .  S
H1979      C2002   1.081       .  S
H1980      C1997   1.081       .  S
N1982     Co1996   2.082       .  S
N1983      N1995   1.325       .  A
N1983     Co1992   2.086       .  S
C1984      C2174   1.483       .  S
C1984      N1988   1.352       .  A
C1985      C2004   1.460       .  S
C1985      H1989   1.081       .  S
N1986      C1997   1.343       .  A
N1986     Co1996   2.087       .  S
C1990      C2154   1.481       .  S
C1990      N2006   1.350   1_545  A
C1994      C2164   1.484       .  S
C2004      C2184   1.476       .  S
C2007      C2144   1.483       .  S
C2007      N2025   1.354   1_554  A
N2008      N2025   1.325       .  A
N2008     Co2045   2.088       .  S
C2009      C2047   1.463       .  S
C2009      N2034   1.340       .  A
C2009      H2054   1.081       .  S
H2010      C2051   1.081       .  S
C2011      C2015   1.466       .  S
C2011      N2035   1.340       .  A
C2011      H2040   1.080       .  S
Co2012     N2030   2.075       .  S
Co2012     N2020   2.088       .  S
Co2012     N2052   2.086       .  S
Co2012     N2028   2.081       .  S
N2013      C2051   1.340       .  A
N2013     Co2014   2.085       .  S
Co2014     N2017   2.082       .  S
Co2014     N2034   2.084       .  S
Co2014     N2021   2.086       .  S
C2015      C2124   1.481       .  S
N2016      N2046   1.326       .  A
N2016     Co2049   2.093       .  S
N2017      N2053   1.321       .  A
N2018      N2028   1.324       .  A
H2019      C2044   1.079       .  S
N2020      N2041   1.326       .  A
N2021      N2026   1.325       .  A
C2022      C2050   1.462       .  S
C2022      C2114   1.482       .  S
N2023      C2038   1.339       .  A
N2023     Co2045   2.077       .  S
C2024      N2052   1.343       .  A
C2024      H2058   1.081       .  S
C2027      C2134   1.480       .  S
C2027      N2048   1.347       .  A
N2029      C2055   1.340       .  A
N2029     Co2045   2.087       .  S
N2030      C2044   1.336       .  A
N2031      N2059   1.324       .  A
N2031     Co2049   2.081       .  S
H2032      C2055   1.081       .  S
H2033      C2050   1.081       .  S
N2035     Co2049   2.079       .  S
N2036      N2048   1.321       .  A
N2036     Co2045   2.075       .  S
C2037      C2224   1.484       .  S
C2037      N2041   1.352       .  A
C2038      C2057   1.464       .  S
C2038      H2042   1.079       .  S
N2039      C2050   1.339       .  A
N2039     Co2049   2.082       .  S
C2043      C2204   1.481       .  S
C2043      N2059   1.350       .  A
C2047      C2214   1.481       .  S
Co2049    Cl2056   2.452       .  S
C2057      C2194   1.488       .  S
C2060      C2097   1.462       .  S
C2060      C2187   1.479   1_565  S
N2061      N2078   1.323       .  A
N2061     Co2098   2.085       .  S
C2062      C2100   1.464       .  S
C2062      N2087   1.341       .  A
C2062      H2107   1.081       .  S
H2063      C2104   1.081       .  S
C2064      N2088   1.338       .  A
C2064      H2093   1.080       .  S
Co2065     N2083   2.083       .  S
Co2065     N2073   2.087       .  S
Co2065     N2105   2.084       .  S
Co2065     N2081   2.073       .  S
N2066      C2104   1.340       .  A
N2066     Co2067   2.084       .  S
Co2067     N2070   2.092       .  S
Co2067     N2087   2.089       .  S
Co2067     N2074   2.087       .  S
C2068      C2157   1.485       .  S
C2068      N2106   1.354   1_545  A
N2069      N2099   1.321       .  A
N2069     Co2102   2.075       .  S
N2070      N2106   1.325       .  A
N2071      N2081   1.322       .  A
H2072      C2097   1.081       .  S
N2073      N2094   1.325       .  A
N2074      N2079   1.324       .  A
C2075      C2103   1.462       .  S
C2075      C2167   1.482       .  S
N2076      C2091   1.341       .  A
N2076     Co2098   2.084       .  S
C2077      N2105   1.341       .  A
C2077      H2111   1.081       .  S
C2080      C2177   1.482       .  S
C2080      N2101   1.351       .  A
N2082      C2108   1.338       .  A
N2082     Co2098   2.082       .  S
N2083      C2097   1.341       .  A
N2084      N2112   1.324       .  A
N2084     Co2102   2.079       .  S
H2085      C2108   1.081       .  S
H2086      C2103   1.080       .  S
N2088     Co2102   2.079       .  S
N2089      N2101   1.324       .  A
N2089     Co2098   2.081       .  S
C2090      C2104   1.461       .  S
C2090      C2117   1.481       .  S
C2091      H2095   1.080       .  S
N2092      C2103   1.339       .  A
N2092     Co2102   2.074       .  S
C2096      C2147   1.480       .  S
C2096      N2112   1.350   1_554  A
N2099      C2110   1.349   1_556  A
C2100      C2137   1.476       .  S
Co2102    Cl2109   2.448       .  S
C2110      C2127   1.480       .  S
C2113      H2120   1.083       .  S
C2113      C2118   1.400       .  A
C2114      C2115   1.408       .  A
C2115      C2116   1.398       .  A
C2115      F2122   1.356       .  S
C2116      H2121   1.083       .  S
C2116      C2117   1.404       .  A
C2118      F2119   1.357       .  S
C2123      H2130   1.083       .  S
C2123      C2128   1.396       .  A
C2124      C2125   1.408       .  A
C2125      C2126   1.396       .  A
C2125      F2132   1.355       .  S
C2126      H2131   1.083       .  S
C2126      C2127   1.406   1_556  A
C2128      F2129   1.355       .  S
C2133      H2140   1.082       .  S
C2133      C2134   1.404   1_554  A
C2133      C2138   1.398       .  A
C2134      C2135   1.410       .  A
C2135      C2136   1.395       .  A
C2135      F2142   1.357       .  S
C2136      H2141   1.082       .  S
C2136      C2137   1.401       .  A
C2137      C2138   1.409   1_556  A
C2138      F2139   1.358       .  S
C2143      H2150   1.083       .  S
C2143      C2144   1.406   1_556  A
C2143      C2148   1.400       .  A
C2145      C2146   1.394       .  A
C2145      F2152   1.354       .  S
C2146      H2151   1.081       .  S
C2147      C2148   1.408   1_554  A
C2148      F2149   1.357       .  S
C2153      H2160   1.082       .  S
C2153      C2158   1.397       .  A
C2154      C2155   1.407   1_545  A
C2155      C2156   1.399       .  A
C2155      F2162   1.357       .  S
C2156      H2161   1.083       .  S
C2156      C2157   1.405   1_565  A
C2158      F2159   1.355       .  S
C2163      H2170   1.083       .  S
C2163      C2168   1.397       .  A
C2164      C2165   1.409       .  A
C2165      C2166   1.398       .  A
C2165      F2172   1.355       .  S
C2166      H2171   1.083       .  S
C2167      C2168   1.409       .  A
C2168      F2169   1.355       .  S
C2173      H2180   1.083       .  S
C2173      C2174   1.405       .  A
C2173      C2178   1.396       .  A
C2175      C2176   1.400       .  A
C2175      F2182   1.356       .  S
C2176      H2181   1.082       .  S
C2177      C2178   1.407       .  A
C2178      F2179   1.357       .  S
C2183      H2190   1.083       .  S
C2183      C2184   1.403       .  A
C2183      C2188   1.396       .  A
C2185      C2186   1.399       .  A
C2185      F2192   1.358       .  S
C2186      H2191   1.082       .  S
C2186      C2187   1.405   1_565  A
C2188      F2189   1.357       .  S
C2193      H2200   1.083       .  S
C2193      C2198   1.400       .  A
C2194      C2195   1.411       .  A
C2195      C2196   1.399       .  A
C2195      F2202   1.355       .  S
C2196      H2201   1.082       .  S
C2197      C2198   1.408   1_455  A
C2198      F2199   1.357       .  S
C2203      H2210   1.082       .  S
C2203      C2208   1.395       .  A
C2204      C2205   1.409       .  A
C2205      C2206   1.401       .  A
C2205      F2212   1.357       .  S
C2206      H2211   1.082       .  S
C2206      C2207   1.405       .  A
C2208      F2209   1.357       .  S
C2213      H2220   1.082       .  S
C2213      C2214   1.404       .  A
C2213      C2218   1.398       .  A
C2215      C2216   1.398       .  A
C2215      F2222   1.357       .  S
C2216      H2221   1.083       .  S
C2216      C2217   1.405       .  A
C2218      F2219   1.355       .  S
C2223      H2230   1.083       .  S
C2223      C2224   1.406       .  A
C2223      C2228   1.402       .  A
C2225      C2226   1.397       .  A
C2225      F2232   1.356       .  S
C2226      H2231   1.083       .  S
C2227      C2228   1.410       .  A
C2228      F2229   1.356       .  S
