geometry optimzed in LAMMPS
_audit_creation_date              2020-12-01 
_audit_creation_method            'lammps2cif' 
_symmetry_space_group_name_H-M    'P1' 
_symmetry_Int_Tables_number       1 
_symmetry_cell_setting            triclinic 
loop_ 
_symmetry_equiv_pos_as_xyz 
  x,y,z 
_cell_length_a                    46.17653437 
_cell_length_b                    34.34138463199165 
_cell_length_c                    34.41044208357697 
_cell_angle_alpha                 90.37886692770104 
_cell_angle_beta                  89.7590661728737 
_cell_angle_gamma                 90.0450217601038 
loop_ 
_atom_site_label 
_atom_site_type_symbol 
_atom_site_fract_x 
_atom_site_fract_y 
_atom_site_fract_z 
_atom_site_charge 
O1          O  0.17470065  0.27297679  0.02191253    -0.88800
C2          C  0.09520406  0.29323804  0.06728557     0.87200
Mg3        Mg  0.18539978  0.28855838  0.96339516     1.58100
O4          O  0.10963640  0.19550726  0.04478896    -0.88500
O5          O  0.17412870  0.22168043  0.05952397    -0.75900
C6          C  0.07555081  0.22233478  0.85732479     0.92300
O7          O  0.13052112  0.34189692  0.00378263    -0.75700
O8          O  0.09487058  0.24882246  0.85672963    -0.83200
Mg9        Mg  0.15471823  0.31750231  0.05675352     1.58000
C10         C  0.05112553  0.12741939  0.98703282     0.92200
O11         O  0.17942331  0.29836612  0.11182795    -0.81500
H12         H  0.13478036  0.14852400  0.05036150    -0.06800
C13         C  0.06429887  0.25514808  0.96307475     0.87100
O14         O  0.17800648  0.22556310  0.94281392    -0.76000
O15         O  0.11968908  0.27866775  0.06813033    -0.88700
O16         O  0.05299063  0.14898738  0.01722312    -0.81500
C17         C  0.06291483  0.20964306  0.12830603     0.92300
C18         C  0.17540777  0.27669767  0.14138501     0.92200
Mg19       Mg  0.09717205  0.18139501  0.94180630     1.58000
O20         O  0.07274737  0.19920481  0.88600517    -0.81500
O21         O  0.12119689  0.15790832  0.99521162    -0.75700
O22         O  0.08891653  0.22214412  0.13093131    -0.81500
O23         O  0.19024994  0.36124383  0.04428814    -0.83300
O24         O  0.16139276  0.27672029  0.86798090    -0.81600
C25         C  0.12204828  0.16647127  0.03121310     0.86600
O26         O  0.13157655  0.22088279  0.93037136    -0.88700
O27         O  0.07659990  0.22604563  0.97605481    -0.88800
O28         O  0.07676363  0.27797742  0.93940641    -0.75900
Mg29       Mg  0.13066152  0.22349049  0.09274159     1.58000
O30         O  0.05226277  0.19876561  0.09597769    -0.83300
H31         H  0.20820489  0.23627160  0.02506167    -0.07000
O32         O  0.14112647  0.30380101  0.95422069    -0.88500
H33         H  0.11643861  0.35126413  0.94882949    -0.06800
H34         H  0.15911505  0.17694774  0.92062256    -0.07000
C35         C  0.12913111  0.33313001  0.96784915     0.86600
C36         C  0.18670549  0.24376464  0.03517757     0.87200
C37         C  0.15620924  0.20669543  0.93034336     0.87200
H38         H  0.04271024  0.26209450  0.97321919    -0.07000
O39         O  0.07346393  0.27463473  0.05428639    -0.76000
Mg40       Mg  0.11996445  0.27615562  0.90631779     1.58000
H41         H  0.09242114  0.32314260  0.07658638    -0.07000
C42         C  0.19946475  0.37225793  0.01124359     0.92200
O43         O  0.19774795  0.30325581  0.90136958    -0.83200
C44         C  0.18694864  0.29082205  0.86967090     0.92200
O45         O  0.15496703  0.25178947  0.14262498    -0.83200
Mg46       Mg  0.06545743  0.21159126  0.03435296     1.58200
O47         O  0.19657520  0.35121673  0.98088258    -0.81500
O48         O  0.06221326  0.13733384  0.95466679    -0.83200
O49         O  0.42550219  0.76765722  0.02435594    -0.88800
C50         C  0.34696187  0.79543463  0.06819359     0.87200
Mg51       Mg  0.43803748  0.78106916  0.96626610     1.58100
O52         O  0.35710248  0.69651418  0.04588552    -0.88500
O53         O  0.42248026  0.71709588  0.06264892    -0.75900
C54         C  0.32653414  0.72705415  0.85672783     0.92300
O55         O  0.38539615  0.84043169  0.00446819    -0.75700
O56         O  0.34675937  0.75232605  0.85653032    -0.83200
Mg57       Mg  0.40756611  0.81438607  0.05801649     1.58000
C58         C  0.29609749  0.63430916  0.98627731     0.92200
O59         O  0.43034919  0.79387225  0.11355120    -0.81500
H60         H  0.38034402  0.64772440  0.05097344    -0.06800
C61         C  0.31583496  0.76042350  0.96299478     0.87100
O62         O  0.42749919  0.71910829  0.94598862    -0.76000
O63         O  0.37066472  0.77876358  0.06930959    -0.88700
O64         O  0.29866926  0.65543288  0.01665741    -0.81500
C65         C  0.31005954  0.71382528  0.12844138     0.92300
C66         C  0.42506982  0.77326000  0.14347034     0.92200
Mg67       Mg  0.34515421  0.68423140  0.94183713     1.58000
O68         O  0.32248421  0.70419316  0.88540398    -0.81500
O69         O  0.36752253  0.65882476  0.99581198    -0.75700
O70         O  0.33646452  0.72448903  0.13191774    -0.81500
O71         O  0.44545097  0.85466952  0.04566467    -0.83300
O72         O  0.41439522  0.77667199  0.86858726    -0.81600
C73         C  0.36846807  0.66684151  0.03196311     0.86600
O74         O  0.38152502  0.72024158  0.93029590    -0.88700
O75         O  0.32663347  0.73038659  0.97618392    -0.88800
O76         O  0.32950205  0.78197013  0.93933725    -0.75900
Mg77       Mg  0.37873440  0.72283917  0.09453869     1.58000
O78         O  0.29941746  0.70460137  0.09559954    -0.83300
H79         H  0.45752565  0.72878329  0.02885013    -0.07000
O80         O  0.39496359  0.80152160  0.95516788    -0.88500
H81         H  0.37283149  0.85110376  0.94913352    -0.06800
H82         H  0.40638179  0.67332305  0.92165920    -0.07000
C83         C  0.38427702  0.83187206  0.96849581     0.86600
C84         C  0.43621503  0.73789780  0.03833559     0.87200
C85         C  0.40512047  0.70323687  0.93152036     0.87200
H86         H  0.29455612  0.76925214  0.97285708    -0.07000
O87         O  0.32453195  0.77880317  0.05472383    -0.76000
Mg88       Mg  0.37277384  0.77702698  0.90668650     1.58000
H89         H  0.34552600  0.82545846  0.07765533    -0.07000
C90         C  0.45569673  0.86423841  0.01269077     0.92200
O91         O  0.45255699  0.79218297  0.90513667    -0.83200
C92         C  0.44117055  0.78520300  0.87227651     0.92200
O93         O  0.40366617  0.74982594  0.14488135    -0.83200
Mg94       Mg  0.31395422  0.71665684  0.03429162     1.58200
O95         O  0.45238155  0.84283189  0.98268687    -0.81500
O96         O  0.30795613  0.64346033  0.95417580    -0.83200
O97         O  0.42456913  0.22978841  0.47732720    -0.88800
C98         C  0.34602166  0.20341499  0.43246364     0.87200
Mg99       Mg  0.43645078  0.21512216  0.53565740     1.58100
O100        O  0.35674020  0.30215582  0.45382278    -0.88500
O101        O  0.42209442  0.28044999  0.43900321    -0.75900
C102        C  0.32550858  0.27642792  0.64324010     0.92300
O103        O  0.38290841  0.15846110  0.49679429    -0.75700
O104        O  0.34569681  0.25117362  0.64445944    -0.83200
Mg105      Mg  0.40614399  0.18371551  0.44310079     1.58000
C106        C  0.29627549  0.36587474  0.51276809     0.92200
O107        O  0.43006936  0.20363905  0.38771439    -0.81500
H108        H  0.38001924  0.35078256  0.44731454    -0.06800
C109        C  0.31448262  0.24015256  0.53808720     0.87100
O110        O  0.42735177  0.27771769  0.55611972    -0.76000
O111        O  0.36984626  0.21986198  0.43140234    -0.88700
O112        O  0.29835247  0.34426483  0.48263067    -0.81500
C113        C  0.31063587  0.28494533  0.37144421     0.92300
C114        C  0.42584969  0.22458611  0.35778060     0.92200
Mg115      Mg  0.34498959  0.31602195  0.55710857     1.58000
O116        O  0.32176004  0.29790411  0.61357360    -0.81500
O117        O  0.36762368  0.34054192  0.50293763    -0.75700
O118        O  0.33707863  0.27428411  0.36816297    -0.81500
O119        O  0.44316933  0.14269114  0.45511955    -0.83300
O120        O  0.41295291  0.22558636  0.63190672    -0.81600
C121        C  0.36821382  0.33204260  0.46692390     0.86600
O122        O  0.38083971  0.27922979  0.56876732    -0.88700
O123        O  0.32573986  0.26956312  0.52397751    -0.88800
O124        O  0.32774798  0.21902022  0.56238214    -0.75900
Mg125      Mg  0.37890363  0.27541077  0.40595328     1.58000
O126        O  0.29957493  0.29406660  0.40419116    -0.83300
H127        H  0.45653737  0.26892921  0.47355773    -0.07000
O128        O  0.39281692  0.19689269  0.54633187    -0.88500
H129        H  0.36932377  0.14829961  0.55198979    -0.06800
H130        H  0.40666489  0.32503435  0.57836887    -0.07000
C131        C  0.38148372  0.16706693  0.53279712     0.86600
C132        C  0.43541782  0.25969086  0.46362977     0.87200
C133        C  0.40488717  0.29512158  0.56868037     0.87200
H134        H  0.29310804  0.23154391  0.52860463    -0.07000
O135        O  0.32360049  0.22023714  0.44589868    -0.76000
Mg136      Mg  0.37114050  0.22393409  0.59446126     1.58000
H137        H  0.34448356  0.17336855  0.42310743    -0.07000
C138        C  0.45297979  0.13233556  0.48790873     0.92200
O139        O  0.44985813  0.20154082  0.59738371    -0.83200
C140        C  0.43888917  0.21281983  0.62952377     0.92200
O141        O  0.40471048  0.24837911  0.35596479    -0.83200
Mg142      Mg  0.31339318  0.28264120  0.46568884     1.58200
O143        O  0.44955725  0.15314900  0.51833502    -0.81500
O144        O  0.30839786  0.35709875  0.54462303    -0.83200
O145        O  0.17341570  0.72598047  0.47733470    -0.88800
C146        C  0.09334512  0.70250702  0.43595870     0.87200
Mg147      Mg  0.18564138  0.71267521  0.53567313     1.58100
O148        O  0.10713872  0.80125851  0.45404017    -0.88500
O149        O  0.17157833  0.77584963  0.43796414    -0.75900
C150        C  0.07782637  0.78287169  0.64302440     0.92300
O151        O  0.13028366  0.65735417  0.50024040    -0.75700
O152        O  0.09882872  0.75902836  0.64553471    -0.83200
Mg153      Mg  0.15328527  0.68001567  0.44504290     1.58000
C154        C  0.04913198  0.87014380  0.51172285     0.92200
O155        O  0.17707822  0.69774844  0.38832533    -0.81500
H156        H  0.13124822  0.84869199  0.44472620    -0.06800
C157        C  0.06440961  0.74406479  0.54047829     0.87100
O158        O  0.17839884  0.77649113  0.55390521    -0.76000
O159        O  0.11764245  0.71756491  0.43376420    -0.88700
O160        O  0.05046561  0.84765608  0.48217020    -0.81500
C161        C  0.05946592  0.78386735  0.37340667     0.92300
C162        C  0.17252242  0.71838364  0.35822181     0.92200
Mg163      Mg  0.09677636  0.81893213  0.55604473     1.58000
O164        O  0.07297498  0.80215556  0.61225217    -0.81500
O165        O  0.11943882  0.84137689  0.50106175    -0.75700
O166        O  0.08539369  0.77120258  0.37028784    -0.81500
O167        O  0.18947367  0.63778902  0.45726567    -0.83300
O168        O  0.16432426  0.72961635  0.63133380    -0.81600
C169        C  0.11938243  0.83127480  0.46545774     0.86600
O170        O  0.13210173  0.78100402  0.56729587    -0.88700
O171        O  0.07608324  0.77248938  0.52498822    -0.88800
O172        O  0.07755840  0.72338975  0.56531889    -0.75900
Mg173      Mg  0.12767694  0.77187171  0.40659045     1.58000
O174        O  0.04909829  0.79541771  0.40575417    -0.83300
H175        H  0.20636524  0.76335213  0.47153976    -0.07000
O176        O  0.14168906  0.69718849  0.54807098    -0.88500
H177        H  0.11718226  0.64983686  0.55611214    -0.06800
H178        H  0.15929634  0.82583667  0.57424834    -0.07000
C179        C  0.12947912  0.66737979  0.53593844     0.86600
C180        C  0.18481782  0.75497343  0.46256021     0.87200
C181        C  0.15656475  0.79564556  0.56596323     0.87200
H182        H  0.04270274  0.73599245  0.53191116    -0.07000
O183        O  0.07156452  0.72113166  0.44896757    -0.76000
Mg184      Mg  0.12177955  0.72770178  0.59575313     1.58000
H185        H  0.09078293  0.67223496  0.42784082    -0.07000
C186        C  0.19950980  0.62772408  0.49003602     0.92200
O187        O  0.19956300  0.70075510  0.59741477    -0.83200
C188        C  0.18972452  0.71511551  0.62897678     0.92200
O189        O  0.15155215  0.74240343  0.35673945    -0.83200
Mg190      Mg  0.06335317  0.78468291  0.46696447     1.58200
O191        O  0.19694719  0.64931452  0.52011532    -0.81500
O192        O  0.06108335  0.86145719  0.54370076    -0.83200
C193        C  0.98414012  0.04072120  0.53097387    -0.11300
C194        C  0.49406335  0.02063812  0.49777281     0.05800
C195        C  0.49098024  0.03819010  0.46119454    -0.10100
C196        C  0.47793397  0.07471360  0.45790925    -0.11700
C197        C  0.46806068  0.09464145  0.49117438    -0.01500
C198        C  0.47150320  0.07739863  0.52774273    -0.10600
C199        C  0.00765579  0.98165762  0.50146557     0.05900
H200        H  0.49885794  0.02387939  0.43510456     0.07800
H201        H  0.47564072  0.08738715  0.42934496     0.11200
H202        H  0.46377427  0.09183547  0.55386954     0.11500
H203        H  0.98561837  0.02781406  0.55951399     0.07800
C204        C  0.02520929  0.97320135  0.53359302    -0.11300
C205        C  0.03804437  0.93669579  0.53726947    -0.10600
C206        C  0.03400130  0.90788545  0.50864390    -0.01500
C207        C  0.01643866  0.91616910  0.47650688    -0.11700
C208        C  0.50325994  0.95260771  0.47307126    -0.10100
H209        H  0.02954979  0.99505128  0.55562531     0.07800
H210        H  0.05170890  0.93137742  0.56218084     0.11500
H211        H  0.51285279  0.89449187  0.45403543     0.11200
H212        H  0.48945298  0.95788351  0.44831100     0.07800
C213        C  0.23067281  0.53621936  0.53370880    -0.11300
C214        C  0.23909770  0.51498462  0.50045231     0.05800
C215        C  0.23484923  0.53161353  0.46366954    -0.10100
C216        C  0.22223561  0.56837977  0.46025011    -0.11700
C217        C  0.21393690  0.58954097  0.49354246    -0.01500
C218        C  0.21844873  0.57317105  0.53030604    -0.10600
C219        C  0.25270409  0.47599707  0.50421928     0.05900
H220        H  0.24158989  0.51646584  0.43747877     0.07800
H221        H  0.21910794  0.58031117  0.43151327     0.11200
H222        H  0.21196426  0.58856944  0.55649286     0.11500
H223        H  0.23309317  0.52407938  0.56246393     0.07800
C224        C  0.27144031  0.46827181  0.53531139    -0.11300
C225        C  0.28481666  0.43208970  0.53858341    -0.10600
C226        C  0.28018893  0.40291311  0.51051476    -0.01500
C227        C  0.26129004  0.41031916  0.47956508    -0.11700
C228        C  0.24751401  0.44640915  0.47660504    -0.10100
H229        H  0.27642227  0.49051328  0.55669113     0.07800
H230        H  0.29950634  0.42740410  0.56255695     0.11500
H231        H  0.25720338  0.38827014  0.45761200     0.11200
H232        H  0.23277283  0.45107427  0.45270807     0.07800
C233        C  0.47047788  0.80571191  0.77149538    -0.11300
C234        C  0.49867017  0.78998882  0.77378739     0.05800
C235        C  0.50700676  0.77201537  0.80865816    -0.10100
C236        C  0.48820991  0.77073849  0.84041756    -0.11700
C237        C  0.46020854  0.78617627  0.83787235    -0.01500
C238        C  0.45128807  0.80324308  0.80305127    -0.10600
C239        C  0.01913503  0.79127614  0.73999687     0.05900
H240        H  0.02795016  0.75828092  0.81152948     0.07800
H241        H  0.49541670  0.75702364  0.86693368     0.11200
H242        H  0.42981680  0.81566676  0.80066177     0.11500
H243        H  0.46324393  0.82044235  0.74562156     0.07800
C244        C  0.00877562  0.79109519  0.70154411    -0.11300
C245        C  0.02800006  0.78989085  0.67007123    -0.10600
C246        C  0.05795068  0.78762666  0.67627296    -0.01500
C247        C  0.06851290  0.78847251  0.71433005    -0.11700
C248        C  0.04938127  0.79107908  0.74581483    -0.10100
H249        H  0.48581365  0.79055147  0.69550206     0.07800
H250        H  0.01940310  0.78905169  0.64083567     0.11500
H251        H  0.09160145  0.78733487  0.71969058     0.11200
H252        H  0.05845762  0.79267813  0.77469381     0.07800
C253        C  0.45442351  0.76709808  0.24593708    -0.11300
C254        C  0.48268106  0.78153426  0.24107075     0.05800
C255        C  0.49166789  0.79381337  0.20412075    -0.10100
C256        C  0.47275751  0.79167044  0.17259255    -0.11700
C257        C  0.44463139  0.77662128  0.17726059    -0.01500
C258        C  0.43564578  0.76435706  0.21426852    -0.10600
C259        C  0.00279911  0.78340891  0.27441295     0.05900
H260        H  0.01326010  0.80534255  0.19972385     0.07800
H261        H  0.48033087  0.80124960  0.14438914     0.11200
H262        H  0.41408408  0.75276858  0.21875674     0.11500
H263        H  0.44705484  0.75722872  0.27413624     0.07800
C264        C  0.99345693  0.79865535  0.31022958    -0.11300
C265        C  0.01209042  0.79945078  0.34204565    -0.10600
C266        C  0.04045567  0.78475031  0.33884418    -0.01500
C267        C  0.04992534  0.76995445  0.30279340    -0.11700
C268        C  0.03128318  0.76941601  0.27084683    -0.10100
H269        H  0.47171793  0.81005111  0.31357042     0.07800
H270        H  0.00410300  0.81126398  0.36930956     0.11500
H271        H  0.07158325  0.75832796  0.29938279     0.11200
H272        H  0.03890581  0.75725326  0.24354430     0.07800
C273        C  0.27416534  0.68735306  0.78167612    -0.11300
C274        C  0.26774599  0.72083419  0.76007890     0.05800
C275        C  0.28119887  0.75618566  0.77011820    -0.10100
C276        C  0.30076782  0.75797869  0.80101852    -0.11700
C277        C  0.30682865  0.72462200  0.82299290    -0.01500
C278        C  0.29326317  0.68932658  0.81310215    -0.10600
C279        C  0.24715759  0.71882767  0.72710132     0.05900
H280        H  0.27680961  0.78235264  0.75376087     0.07800
H281        H  0.31075812  0.78563024  0.80820247     0.11200
H282        H  0.29757096  0.66318638  0.82954179     0.11500
H283        H  0.26398415  0.65979157  0.77466295     0.07800
C284        C  0.24932451  0.68878863  0.69933869    -0.11300
C285        C  0.23045334  0.68738904  0.66768733    -0.10600
C286        C  0.20865450  0.71556170  0.66354517    -0.01500
C287        C  0.20605049  0.74514458  0.69174021    -0.11700
C288        C  0.22532154  0.74699726  0.72300424    -0.10100
H289        H  0.26605311  0.66685255  0.70167608     0.07800
H290        H  0.23291830  0.66425174  0.64638609     0.11500
H291        H  0.18957337  0.76738859  0.68908269     0.11200
H292        H  0.22305438  0.77029790  0.74415827     0.07800
C293        C  0.24213895  0.70548164  0.19015281    -0.11300
C294        C  0.25258640  0.71237985  0.22781296     0.05800
C295        C  0.28242398  0.71891175  0.23291784    -0.10100
C296        C  0.30129817  0.71924326  0.20083316    -0.11700
C297        C  0.29071323  0.71261069  0.16307180    -0.01500
C298        C  0.26092473  0.70545121  0.15827669    -0.10600
C299        C  0.23211517  0.71339687  0.26129093     0.05900
H300        H  0.29104424  0.72458044  0.26162923     0.07800
H301        H  0.32409148  0.72486871  0.20556353     0.11200
H302        H  0.25193746  0.70018455  0.12969840     0.11500
H303        H  0.21934612  0.69988369  0.18534654     0.07800
C304        C  0.20558640  0.73315546  0.25823672    -0.11300
C305        C  0.18611393  0.73420904  0.28943290    -0.10600
C306        C  0.19256730  0.71526833  0.32444611    -0.01500
C307        C  0.21899812  0.69511869  0.32739052    -0.11700
C308        C  0.23863654  0.69439070  0.29622009    -0.10100
H309        H  0.20007575  0.74839070  0.23181730     0.07800
H310        H  0.16605075  0.75013138  0.28616862     0.11500
H311        H  0.22472770  0.68038482  0.35400547     0.11200
H312        H  0.25879576  0.67864326  0.29926224     0.07800
C313        C  0.02796126  0.25046808  0.77271717    -0.11300
C314        C  0.01510101  0.21478230  0.76259186     0.05800
C315        C  0.02252675  0.18126038  0.78355175    -0.10100
C316        C  0.04213505  0.18356716  0.81446936    -0.11700
C317        C  0.05524239  0.21923432  0.82426356    -0.01500
C318        C  0.04804409  0.25260080  0.80294344    -0.10600
C319        C  0.49440943  0.21265967  0.72976402     0.05900
H320        H  0.01283304  0.15343362  0.77633497     0.07800
H321        H  0.04725446  0.15742904  0.83048892     0.11200
H322        H  0.05757965  0.28054540  0.81010716     0.11500
H323        H  0.52276340  0.27665816  0.75682467     0.07800
C324        C  0.47147152  0.23938981  0.72713420    -0.11300
C325        C  0.45278397  0.23859367  0.69519682    -0.10600
C326        C  0.45709209  0.21163029  0.66484145    -0.01500
C327        C  0.47985925  0.18463580  0.66770244    -0.11700
C328        C  0.49812671  0.18486575  0.70005775    -0.10100
H329        H  0.46808568  0.26098016  0.74978122     0.07800
H330        H  0.43551253  0.25984352  0.69366124     0.11500
H331        H  0.48362179  0.16344549  0.64478363     0.11200
H332        H  0.01573464  0.16409644  0.70131714     0.07800
C333        C  0.03602363  0.21849250  0.23275106    -0.11300
C334        C  0.00613177  0.21211820  0.22815214     0.05800
C335        C  0.99548760  0.20311027  0.19103953    -0.10100
C336        C  0.01413098  0.20127714  0.15906171    -0.11700
C337        C  0.04392340  0.20879257  0.16323894    -0.01500
C338        C  0.05473667  0.21710746  0.20054906    -0.10600
C339        C  0.48581454  0.21557327  0.26157549     0.05900
H340        H  0.47263652  0.19751665  0.18673997     0.07800
H341        H  0.00499347  0.19473078  0.13082506     0.11200
H342        H  0.07754785  0.22300638  0.20477707     0.11500
H343        H  0.04478045  0.22560718  0.26107706     0.07800
C344        C  0.49206640  0.19791591  0.29724773    -0.11300
C345        C  0.47245649  0.20050273  0.32829608    -0.10600
C346        C  0.44632075  0.22122293  0.32450981    -0.01500
C347        C  0.44026604  0.23921541  0.28888960    -0.11700
C348        C  0.45971983  0.23623754  0.25774358    -0.10100
H349        H  0.01191335  0.18159963  0.30090532     0.07800
H350        H  0.47788395  0.18643720  0.35538755     0.11500
H351        H  0.42043108  0.25549513  0.28500166     0.11200
H352        H  0.45449207  0.25047870  0.23066756     0.07800
C353        C  0.22246998  0.26012845  0.77506328    -0.11300
C354        C  0.24348716  0.28928828  0.77025312     0.05800
C355        C  0.24462344  0.32028205  0.79698538    -0.10100
C356        C  0.22583660  0.32120446  0.82899949    -0.11700
C357        C  0.20506614  0.29172864  0.83417726    -0.01500
C358        C  0.20314450  0.26161655  0.80647528    -0.10600
C359        C  0.26487745  0.28656770  0.73823369     0.05900
H360        H  0.26069925  0.34302914  0.79377954     0.07800
H361        H  0.22769471  0.34476596  0.84992939     0.11200
H362        H  0.18745941  0.23842253  0.80996099     0.11500
H363        H  0.22118724  0.23606576  0.75462838     0.07800
C364        C  0.28271111  0.25365457  0.73467946    -0.11300
C365        C  0.30298960  0.25084660  0.70447316    -0.10600
C366        C  0.30541227  0.28059440  0.67675852    -0.01500
C367        C  0.28754399  0.31361755  0.68049681    -0.11700
C368        C  0.26768243  0.31674966  0.71120442    -0.10100
H369        H  0.28101819  0.23019470  0.75546132     0.07800
H370        H  0.31632748  0.22499625  0.70233858     0.11500
H371        H  0.28889123  0.33704647  0.65964671     0.11200
H372        H  0.25411488  0.34238351  0.71347868     0.07800
C373        C  0.20751878  0.26432500  0.24177370    -0.11300
C374        C  0.23419863  0.28372246  0.23819700     0.05800
C375        C  0.24125933  0.30135561  0.20267072    -0.10100
C376        C  0.22193663  0.29976544  0.17143841    -0.11700
C377        C  0.19533231  0.28005580  0.17494306    -0.01500
C378        C  0.18837447  0.26235004  0.21049035    -0.10600
C379        C  0.25433026  0.28566844  0.27169826     0.05900
H380        H  0.26157126  0.31674671  0.19922112     0.07800
H381        H  0.22801441  0.31353422  0.14437022     0.11200
H382        H  0.16811343  0.24688440  0.21415801     0.11500
H383        H  0.20162706  0.25012743  0.26869507     0.07800
C384        C  0.24358729  0.29399001  0.30903399    -0.11300
C385        C  0.26202594  0.29439782  0.34104183    -0.10600
C386        C  0.29172923  0.28624127  0.33665567    -0.01500
C387        C  0.30263622  0.27849639  0.29916190    -0.11700
C388        C  0.28411729  0.27840129  0.26695700    -0.10100
H389        H  0.22082522  0.30024674  0.31348826     0.07800
H390        H  0.25282109  0.30063698  0.36940286     0.11500
H391        H  0.32538274  0.27214504  0.29475758     0.11200
H392        H  0.29294194  0.27169422  0.23848120     0.07800
C393        C  0.02672207  0.02464193  0.96387631    -0.11300
C394        C  0.01011434  0.01527678  0.99687838     0.05800
C395        C  0.00640852  0.04371268  0.02610017    -0.10100
C396        C  0.01945313  0.08026866  0.02275989    -0.11700
C397        C  0.03618992  0.08942621  0.98988018    -0.01500
C398        C  0.03945596  0.06134133  0.96032158    -0.10600
C399        C  0.49687528  0.97598344  0.00088021     0.05900
H400        H  0.99326883  0.03785500  0.05152310     0.07800
H401        H  0.01640372  0.10137060  0.04594440     0.11200
H402        H  0.05243201  0.06737866  0.93476882     0.11500
H403        H  0.53046108  0.00333774  0.94108836     0.07800
C404        C  0.48617409  0.95600291  0.96814344    -0.11300
C405        C  0.47359718  0.91923154  0.97192898    -0.10600
C406        C  0.47100698  0.90180169  0.00861200    -0.01500
C407        C  0.48177244  0.92156104  0.04133389    -0.11700
C408        C  0.99477295  0.95810497  0.03747623    -0.10100
H409        H  0.48692453  0.96908655  0.93962317     0.07800
H410        H  0.46515190  0.90492177  0.94621728     0.11500
H411        H  0.98017546  0.90874529  0.06993800     0.11200
H412        H  0.00332070  0.97222695  0.06319607     0.07800
C413        C  0.24723347  0.55408415  0.02367971    -0.11300
C414        C  0.25161676  0.52470453  0.99558351     0.05800
C415        C  0.26969305  0.53254887  0.96358742    -0.10100
C416        C  0.28335060  0.56859115  0.96002328    -0.11700
C417        C  0.27961640  0.59750073  0.98864094    -0.01500
C418        C  0.26124318  0.59001664  0.02037733    -0.10600
C419        C  0.23797270  0.48574326  0.99986888     0.05900
H420        H  0.27400094  0.51045362  0.94174645     0.07800
H421        H  0.29758316  0.57334653  0.93540806     0.11200
H422        H  0.25780585  0.61186195  0.04276832     0.11500
H423        H  0.23300034  0.54932916  0.04827521     0.07800
C424        C  0.23482273  0.46866665  0.03671355    -0.11300
C425        C  0.22246505  0.43170705  0.04052488    -0.10600
C426        C  0.21332948  0.41085395  0.00753705    -0.01500
C427        C  0.21658805  0.42780565  0.97073460    -0.11700
C428        C  0.22855521  0.46489377  0.96697318    -0.10100
H429        H  0.24230642  0.48357529  0.06260462     0.07800
H430        H  0.22027271  0.41934250  0.06926130     0.11500
H431        H  0.20939866  0.41268855  0.94478557     0.11200
H432        H  0.23009664  0.47739502  0.93824130     0.07800
O433        O  0.67470062  0.27297680  0.02191254    -0.88800
C434        C  0.59520404  0.29323803  0.06728557     0.87200
Mg435      Mg  0.68539975  0.28855839  0.96339516     1.58100
O436        O  0.60963645  0.19550726  0.04478895    -0.88500
O437        O  0.67412870  0.22168043  0.05952398    -0.75900
C438        C  0.57555083  0.22233477  0.85732480     0.92300
O439        O  0.63052098  0.34189693  0.00378254    -0.75700
O440        O  0.59487059  0.24882245  0.85672963    -0.83200
Mg441      Mg  0.65471818  0.31750232  0.05675350     1.58000
C442        C  0.55112552  0.12741939  0.98703283     0.92200
O443        O  0.67942329  0.29836613  0.11182794    -0.81500
H444        H  0.63478039  0.14852395  0.05036152    -0.06800
C445        C  0.56429883  0.25514804  0.96307474     0.87100
O446        O  0.67800652  0.22556310  0.94281393    -0.76000
O447        O  0.61968906  0.27866773  0.06813030    -0.88700
O448        O  0.55299065  0.14898739  0.01722313    -0.81500
C449        C  0.56291482  0.20964305  0.12830602     0.92300
C450        C  0.67540777  0.27669769  0.14138500     0.92200
Mg451      Mg  0.59717209  0.18139501  0.94180631     1.58000
O452        O  0.57274740  0.19920480  0.88600519    -0.81500
O453        O  0.62119695  0.15790832  0.99521162    -0.75700
O454        O  0.58891652  0.22214416  0.13093132    -0.81500
O455        O  0.69024991  0.36124383  0.04428813    -0.83300
O456        O  0.66139273  0.27672024  0.86798090    -0.81600
C457        C  0.62204831  0.16647127  0.03121310     0.86600
O458        O  0.63157660  0.22088279  0.93037136    -0.88700
O459        O  0.57659992  0.22604565  0.97605481    -0.88800
O460        O  0.57676353  0.27797742  0.93940639    -0.75900
Mg461      Mg  0.63066154  0.22349049  0.09274160     1.58000
O462        O  0.55226279  0.19876558  0.09597768    -0.83300
H463        H  0.70820483  0.23627156  0.02506157    -0.07000
O464        O  0.64112644  0.30380101  0.95422065    -0.88500
H465        H  0.61643847  0.35126398  0.94882933    -0.06800
H466        H  0.65911511  0.17694774  0.92062255    -0.07000
C467        C  0.62913101  0.33312998  0.96784905     0.86600
C468        C  0.68670548  0.24376463  0.03517754     0.87200
C469        C  0.65620929  0.20669543  0.93034335     0.87200
H470        H  0.54271014  0.26209436  0.97321922    -0.07000
O471        O  0.57346391  0.27463474  0.05428641    -0.76000
Mg472      Mg  0.61996444  0.27615561  0.90631778     1.58000
H473        H  0.59242114  0.32314260  0.07658638    -0.07000
C474        C  0.69946470  0.37225793  0.01124358     0.92200
O475        O  0.69774789  0.30325585  0.90136959    -0.83200
C476        C  0.68694858  0.29082209  0.86967090     0.92200
O477        O  0.65496704  0.25178948  0.14262499    -0.83200
Mg478      Mg  0.56545747  0.21159126  0.03435296     1.58200
O479        O  0.69657517  0.35121671  0.98088257    -0.81500
O480        O  0.56221327  0.13733382  0.95466681    -0.83200
O481        O  0.92550207  0.76765719  0.02435592    -0.88800
C482        C  0.84696186  0.79543464  0.06819360     0.87200
Mg483      Mg  0.93803742  0.78106915  0.96626611     1.58100
O484        O  0.85710255  0.69651418  0.04588554    -0.88500
O485        O  0.92248027  0.71709588  0.06264895    -0.75900
C486        C  0.82653418  0.72705412  0.85672781     0.92300
O487        O  0.88539620  0.84043170  0.00446819    -0.75700
O488        O  0.84675939  0.75232605  0.85653030    -0.83200
Mg489      Mg  0.90756607  0.81438608  0.05801648     1.58000
C490        C  0.79609755  0.63430916  0.98627732     0.92200
O491        O  0.93034908  0.79387225  0.11355122    -0.81500
H492        H  0.88034408  0.64772439  0.05097344    -0.06800
C493        C  0.81583493  0.76042349  0.96299493     0.87100
O494        O  0.92749921  0.71910829  0.94598862    -0.76000
O495        O  0.87066471  0.77876358  0.06930957    -0.88700
O496        O  0.79866932  0.65543287  0.01665743    -0.81500
C497        C  0.81005959  0.71382528  0.12844141     0.92300
C498        C  0.92506971  0.77326001  0.14347038     0.92200
Mg499      Mg  0.84515426  0.68423141  0.94183714     1.58000
O500        O  0.82248426  0.70419315  0.88540398    -0.81500
O501        O  0.86752259  0.65882476  0.99581199    -0.75700
O502        O  0.83646457  0.72448903  0.13191775    -0.81500
O503        O  0.94545090  0.85466955  0.04566466    -0.83300
O504        O  0.91439512  0.77667200  0.86858724    -0.81600
C505        C  0.86846814  0.66684151  0.03196311     0.86600
O506        O  0.88152505  0.72024158  0.93029591    -0.88700
O507        O  0.82663353  0.73038660  0.97618402    -0.88800
O508        O  0.82950195  0.78197012  0.93933729    -0.75900
Mg509      Mg  0.87873442  0.72283917  0.09453870     1.58000
O510        O  0.79941751  0.70460135  0.09559958    -0.83300
H511        H  0.95752557  0.72878337  0.02885000    -0.07000
O512        O  0.89496356  0.80152160  0.95516786    -0.88500
H513        H  0.87283155  0.85110382  0.94913353    -0.06800
H514        H  0.90638184  0.67332305  0.92165919    -0.07000
C515        C  0.88427705  0.83187209  0.96849580     0.86600
C516        C  0.93621497  0.73789781  0.03833556     0.87200
C517        C  0.90512051  0.70323688  0.93152035     0.87200
H518        H  0.79455616  0.76925211  0.97285737    -0.07000
O519        O  0.82453193  0.77880317  0.05472390    -0.76000
Mg520      Mg  0.87277378  0.77702699  0.90668651     1.58000
H521        H  0.84552601  0.82545848  0.07765531    -0.07000
C522        C  0.95569671  0.86423842  0.01269077     0.92200
O523        O  0.95255688  0.79218297  0.90513667    -0.83200
C524        C  0.94117045  0.78520301  0.87227650     0.92200
O525        O  0.90366606  0.74982595  0.14488139    -0.83200
Mg526      Mg  0.81395427  0.71665682  0.03429169     1.58200
O527        O  0.95238158  0.84283186  0.98268688    -0.81500
O528        O  0.80795619  0.64346033  0.95417581    -0.83200
O529        O  0.92456919  0.22978840  0.47732720    -0.88800
C530        C  0.84602166  0.20341494  0.43246366     0.87200
Mg531      Mg  0.93645083  0.21512214  0.53565744     1.58100
O532        O  0.85674021  0.30215580  0.45382279    -0.88500
O533        O  0.92209436  0.28044998  0.43900324    -0.75900
C534        C  0.82550860  0.27642791  0.64324009     0.92300
O535        O  0.88290842  0.15846108  0.49679426    -0.75700
O536        O  0.84569683  0.25117362  0.64445943    -0.83200
Mg537      Mg  0.90614403  0.18371550  0.44310079     1.58000
C538        C  0.79627545  0.36587471  0.51276811     0.92200
O539        O  0.93006939  0.20363905  0.38771439    -0.81500
H540        H  0.88001911  0.35078264  0.44731451    -0.06800
C541        C  0.81448258  0.24015254  0.53808723     0.87100
O542        O  0.92735184  0.27771766  0.55611990    -0.76000
O543        O  0.86984626  0.21986191  0.43140231    -0.88700
O544        O  0.79835250  0.34426484  0.48263066    -0.81500
C545        C  0.81063591  0.28494539  0.37144419     0.92300
C546        C  0.92584971  0.22458610  0.35778059     0.92200
Mg547      Mg  0.84498960  0.31602192  0.55710855     1.58000
O548        O  0.82176005  0.29790410  0.61357359    -0.81500
O549        O  0.86762370  0.34054192  0.50293762    -0.75700
O550        O  0.83707867  0.27428413  0.36816294    -0.81500
O551        O  0.94316939  0.14269115  0.45511954    -0.83300
O552        O  0.91295295  0.22558636  0.63190670    -0.81600
C553        C  0.86821380  0.33204263  0.46692387     0.86600
O554        O  0.88083975  0.27922979  0.56876729    -0.88700
O555        O  0.82573990  0.26956301  0.52397748    -0.88800
O556        O  0.82774786  0.21902017  0.56238220    -0.75900
Mg557      Mg  0.87890363  0.27541075  0.40595329     1.58000
O558        O  0.79957498  0.29406661  0.40419117    -0.83300
H559        H  0.95653737  0.26892930  0.47355765    -0.07000
O560        O  0.89281695  0.19689255  0.54633194    -0.88500
H561        H  0.86932362  0.14829958  0.55198966    -0.06800
H562        H  0.90666491  0.32503437  0.57836890    -0.07000
C563        C  0.88148369  0.16706685  0.53279709     0.86600
C564        C  0.93541782  0.25969089  0.46362975     0.87200
C565        C  0.90488721  0.29512159  0.56868043     0.87200
H566        H  0.79310792  0.23154399  0.52860467    -0.07000
O567        O  0.82360049  0.22023707  0.44589868    -0.76000
Mg568      Mg  0.87114051  0.22393406  0.59446127     1.58000
H569        H  0.84448355  0.17336842  0.42310750    -0.07000
C570        C  0.95297984  0.13233557  0.48790873     0.92200
O571        O  0.94985819  0.20154081  0.59738372    -0.83200
C572        C  0.93888921  0.21281984  0.62952377     0.92200
O573        O  0.90471051  0.24837911  0.35596479    -0.83200
Mg574      Mg  0.81339321  0.28264116  0.46568884     1.58200
O575        O  0.94955731  0.15314902  0.51833501    -0.81500
O576        O  0.80839776  0.35709868  0.54462307    -0.83200
O577        O  0.67341576  0.72598047  0.47733468    -0.88800
C578        C  0.59334517  0.70250701  0.43595871     0.87200
Mg579      Mg  0.68564140  0.71267521  0.53567312     1.58100
O580        O  0.60713872  0.80125848  0.45404018    -0.88500
O581        O  0.67157836  0.77584963  0.43796413    -0.75900
C582        C  0.57782640  0.78287168  0.64302440     0.92300
O583        O  0.63028372  0.65735416  0.50024040    -0.75700
O584        O  0.59882876  0.75902836  0.64553472    -0.83200
Mg585      Mg  0.65328530  0.68001567  0.44504291     1.58000
C586        C  0.54913192  0.87014377  0.51172286     0.92200
O587        O  0.67707810  0.69774845  0.38832531    -0.81500
H588        H  0.63124809  0.84869206  0.44472622    -0.06800
C589        C  0.56440967  0.74406478  0.54047830     0.87100
O590        O  0.67839878  0.77649111  0.55390520    -0.76000
O591        O  0.61764249  0.71756491  0.43376421    -0.88700
O592        O  0.55046563  0.84765609  0.48217018    -0.81500
C593        C  0.55946596  0.78386735  0.37340667     0.92300
C594        C  0.67252230  0.71838365  0.35822178     0.92200
Mg595      Mg  0.59677632  0.81893216  0.55604474     1.58000
O596        O  0.57297503  0.80215556  0.61225218    -0.81500
O597        O  0.61943870  0.84137692  0.50106175    -0.75700
O598        O  0.58539372  0.77120256  0.37028785    -0.81500
O599        O  0.68947373  0.63778902  0.45726566    -0.83300
O600        O  0.66432429  0.72961641  0.63133383    -0.81600
C601        C  0.61938236  0.83127483  0.46545774     0.86600
O602        O  0.63210169  0.78100403  0.56729588    -0.88700
O603        O  0.57608329  0.77248938  0.52498823    -0.88800
O604        O  0.57755845  0.72338974  0.56531889    -0.75900
Mg605      Mg  0.62767692  0.77187171  0.40659046     1.58000
O606        O  0.54909834  0.79541771  0.40575417    -0.83300
H607        H  0.70636529  0.76335215  0.47153972    -0.07000
O608        O  0.64168911  0.69718850  0.54807098    -0.88500
H609        H  0.61718233  0.64983685  0.55611214    -0.06800
H610        H  0.65929627  0.82583667  0.57424836    -0.07000
C611        C  0.62947918  0.66737979  0.53593844     0.86600
C612        C  0.68481787  0.75497344  0.46256019     0.87200
C613        C  0.65656470  0.79564556  0.56596323     0.87200
H614        H  0.54270280  0.73599245  0.53191116    -0.07000
O615        O  0.57156457  0.72113165  0.44896757    -0.76000
Mg616      Mg  0.62177959  0.72770178  0.59575314     1.58000
H617        H  0.59078298  0.67223495  0.42784082    -0.07000
C618        C  0.69950987  0.62772408  0.49003601     0.92200
O619        O  0.69956297  0.70075505  0.59741477    -0.83200
C620        C  0.68972453  0.71511551  0.62897679     0.92200
O621        O  0.65155202  0.74240342  0.35673942    -0.83200
Mg622      Mg  0.56335321  0.78468290  0.46696447     1.58200
O623        O  0.69694726  0.64931452  0.52011531    -0.81500
O624        O  0.56108323  0.86145714  0.54370080    -0.83200
C625        C  0.48414011  0.04072119  0.53097387    -0.11300
C626        C  0.99406334  0.02063812  0.49777281     0.05800
C627        C  0.99098019  0.03819007  0.46119453    -0.10100
C628        C  0.97793400  0.07471361  0.45790925    -0.11700
C629        C  0.96806070  0.09464145  0.49117438    -0.01500
C630        C  0.97150315  0.07739860  0.52774272    -0.10600
C631        C  0.50765582  0.98165764  0.50146556     0.05900
H632        H  0.99885782  0.02387932  0.43510455     0.07800
H633        H  0.97564079  0.08738721  0.42934498     0.11200
H634        H  0.96377416  0.09183540  0.55386953     0.11500
H635        H  0.48561832  0.02781401  0.55951397     0.07800
C636        C  0.52520934  0.97320137  0.53359301    -0.11300
C637        C  0.53804439  0.93669579  0.53726944    -0.10600
C638        C  0.53400128  0.90788544  0.50864390    -0.01500
C639        C  0.51643862  0.91616910  0.47650690    -0.11700
C640        C  0.00325994  0.95260770  0.47307124    -0.10100
H641        H  0.52954982  0.99505128  0.55562531     0.07800
H642        H  0.55170893  0.93137738  0.56218084     0.11500
H643        H  0.01285292  0.89449191  0.45403535     0.11200
H644        H  0.98945300  0.95788348  0.44831098     0.07800
C645        C  0.73067289  0.53621934  0.53370874    -0.11300
C646        C  0.73909772  0.51498459  0.50045222     0.05800
C647        C  0.73484912  0.53161345  0.46366948    -0.10100
C648        C  0.72223562  0.56837974  0.46025005    -0.11700
C649        C  0.71393696  0.58954097  0.49354244    -0.01500
C650        C  0.71844879  0.57317103  0.53030600    -0.10600
C651        C  0.75270416  0.47599708  0.50421919     0.05900
H652        H  0.74158968  0.51646566  0.43747863     0.07800
H653        H  0.71910798  0.58031117  0.43151324     0.11200
H654        H  0.71196434  0.58856941  0.55649285     0.11500
H655        H  0.73309328  0.52407938  0.56246385     0.07800
C656        C  0.77144033  0.46827182  0.53531132    -0.11300
C657        C  0.78481662  0.43208968  0.53858344    -0.10600
C658        C  0.78018891  0.40291309  0.51051475    -0.01500
C659        C  0.76129008  0.41031916  0.47956504    -0.11700
C660        C  0.74751406  0.44640914  0.47660496    -0.10100
H661        H  0.77642229  0.49051332  0.55669106     0.07800
H662        H  0.79950622  0.42740405  0.56255701     0.11500
H663        H  0.75720342  0.38827012  0.45761196     0.11200
H664        H  0.73277287  0.45107421  0.45270801     0.07800
C665        C  0.97047788  0.80571193  0.77149539    -0.11300
C666        C  0.99867016  0.78998882  0.77378741     0.05800
C667        C  0.00700671  0.77201535  0.80865819    -0.10100
C668        C  0.98820983  0.77073845  0.84041756    -0.11700
C669        C  0.96020847  0.78617626  0.83787233    -0.01500
C670        C  0.95128804  0.80324312  0.80305124    -0.10600
C671        C  0.51913505  0.79127615  0.73999687     0.05900
H672        H  0.52795021  0.75828095  0.81152942     0.07800
H673        H  0.99541659  0.75702358  0.86693369     0.11200
H674        H  0.92981680  0.81566683  0.80066170     0.11500
H675        H  0.96324398  0.82044240  0.74562155     0.07800
C676        C  0.50877564  0.79109519  0.70154412    -0.11300
C677        C  0.52800007  0.78989084  0.67007124    -0.10600
C678        C  0.55795070  0.78762665  0.67627295    -0.01500
C679        C  0.56851291  0.78847251  0.71433004    -0.11700
C680        C  0.54938130  0.79107909  0.74581483    -0.10100
H681        H  0.98581365  0.79055147  0.69550202     0.07800
H682        H  0.51940310  0.78905168  0.64083567     0.11500
H683        H  0.59160149  0.78733487  0.71969055     0.11200
H684        H  0.55845766  0.79267813  0.77469380     0.07800
C685        C  0.95442351  0.76709805  0.24593707    -0.11300
C686        C  0.98268105  0.78153427  0.24107072     0.05800
C687        C  0.99166785  0.79381337  0.20412071    -0.10100
C688        C  0.97275745  0.79167046  0.17259253    -0.11700
C689        C  0.94463132  0.77662129  0.17726061    -0.01500
C690        C  0.93564576  0.76435703  0.21426854    -0.10600
C691        C  0.50279915  0.78340890  0.27441295     0.05900
H692        H  0.51326012  0.80534255  0.19972395     0.07800
H693        H  0.98033076  0.80124963  0.14438913     0.11200
H694        H  0.91408408  0.75276852  0.21875681     0.11500
H695        H  0.94705489  0.75722869  0.27413625     0.07800
C696        C  0.49345699  0.79865537  0.31022957    -0.11300
C697        C  0.51209049  0.79945077  0.34204565    -0.10600
C698        C  0.54045572  0.78475031  0.33884417    -0.01500
C699        C  0.54992540  0.76995445  0.30279339    -0.11700
C700        C  0.53128323  0.76941600  0.27084682    -0.10100
H701        H  0.97171785  0.81005109  0.31357041     0.07800
H702        H  0.50410307  0.81126395  0.36930956     0.11500
H703        H  0.57158330  0.75832796  0.29938279     0.11200
H704        H  0.53890586  0.75725326  0.24354429     0.07800
C705        C  0.77416527  0.68735309  0.78167616    -0.11300
C706        C  0.76774601  0.72083420  0.76007888     0.05800
C707        C  0.78119891  0.75618567  0.77011820    -0.10100
C708        C  0.80076786  0.75797866  0.80101851    -0.11700
C709        C  0.80682866  0.72462197  0.82299289    -0.01500
C710        C  0.79326309  0.68932659  0.81310221    -0.10600
C711        C  0.74715764  0.71882768  0.72710129     0.05900
H712        H  0.77680965  0.78235266  0.75376090     0.07800
H713        H  0.81075815  0.78563022  0.80820250     0.11200
H714        H  0.79757082  0.66318641  0.82954189     0.11500
H715        H  0.76398403  0.65979162  0.77466299     0.07800
C716        C  0.74932455  0.68878863  0.69933868    -0.11300
C717        C  0.73045340  0.68738904  0.66768731    -0.10600
C718        C  0.70865455  0.71556170  0.66354515    -0.01500
C719        C  0.70605055  0.74514458  0.69174020    -0.11700
C720        C  0.72532160  0.74699727  0.72300423    -0.10100
H721        H  0.76605315  0.66685251  0.70167611     0.07800
H722        H  0.73291834  0.66425174  0.64638608     0.11500
H723        H  0.68957342  0.76738859  0.68908270     0.11200
H724        H  0.72305443  0.77029789  0.74415826     0.07800
C725        C  0.74213894  0.70548155  0.19015277    -0.11300
C726        C  0.75258638  0.71237972  0.22781295     0.05800
C727        C  0.78242393  0.71891171  0.23291785    -0.10100
C728        C  0.80129816  0.71924326  0.20083320    -0.11700
C729        C  0.79071326  0.71261069  0.16307183    -0.01500
C730        C  0.76092476  0.70545120  0.15827667    -0.10600
C731        C  0.73211510  0.71339681  0.26129090     0.05900
H732        H  0.79104414  0.72458046  0.26162924     0.07800
H733        H  0.82409146  0.72486874  0.20556362     0.11200
H734        H  0.75193754  0.70018458  0.12969836     0.11500
H735        H  0.71934615  0.69988362  0.18534645     0.07800
C736        C  0.70558635  0.73315539  0.25823669    -0.11300
C737        C  0.68611386  0.73420904  0.28943285    -0.10600
C738        C  0.69256723  0.71526840  0.32444613    -0.01500
C739        C  0.71899809  0.69511889  0.32739060    -0.11700
C740        C  0.73863649  0.69439074  0.29622015    -0.10100
H741        H  0.70007568  0.74839057  0.23181716     0.07800
H742        H  0.66605069  0.75013132  0.28616851     0.11500
H743        H  0.72472771  0.68038512  0.35400565     0.11200
H744        H  0.75879563  0.67864325  0.29926230     0.07800
C745        C  0.52796130  0.25046804  0.77271715    -0.11300
C746        C  0.51510104  0.21478227  0.76259185     0.05800
C747        C  0.52252678  0.18126033  0.78355173    -0.10100
C748        C  0.54213509  0.18356713  0.81446933    -0.11700
C749        C  0.55524242  0.21923427  0.82426356    -0.01500
C750        C  0.54804413  0.25260075  0.80294343    -0.10600
C751        C  0.99440945  0.21265974  0.72976399     0.05900
H752        H  0.51283303  0.15343361  0.77633501     0.07800
H753        H  0.54725447  0.15742897  0.83048895     0.11200
H754        H  0.55757969  0.28054533  0.81010718     0.11500
H755        H  0.02276336  0.27665817  0.75682467     0.07800
C756        C  0.97147159  0.23938990  0.72713412    -0.11300
C757        C  0.95278399  0.23859375  0.69519681    -0.10600
C758        C  0.95709210  0.21163030  0.66484146    -0.01500
C759        C  0.97985922  0.18463577  0.66770249    -0.11700
C760        C  0.99812671  0.18486579  0.70005774    -0.10100
H761        H  0.96808577  0.26098034  0.74978116     0.07800
H762        H  0.93551256  0.25984354  0.69366124     0.11500
H763        H  0.98362174  0.16344540  0.64478372     0.11200
H764        H  0.51573462  0.16409639  0.70131719     0.07800
C765        C  0.53602365  0.21849246  0.23275107    -0.11300
C766        C  0.50613176  0.21211820  0.22815215     0.05800
C767        C  0.49548760  0.20311030  0.19103955    -0.10100
C768        C  0.51413096  0.20127715  0.15906172    -0.11700
C769        C  0.54392339  0.20879257  0.16323893    -0.01500
C770        C  0.55473666  0.21710744  0.20054905    -0.10600
C771        C  0.98581457  0.21557332  0.26157549     0.05900
H772        H  0.97263656  0.19751662  0.18673992     0.07800
H773        H  0.50499345  0.19473081  0.13082505     0.11200
H774        H  0.57754788  0.22300635  0.20477703     0.11500
H775        H  0.54478048  0.22560708  0.26107707     0.07800
C776        C  0.99206649  0.19791605  0.29724777    -0.11300
C777        C  0.97245654  0.20050278  0.32829609    -0.10600
C778        C  0.94632078  0.22122293  0.32450980    -0.01500
C779        C  0.94026608  0.23921543  0.28888960    -0.11700
C780        C  0.95971986  0.23623756  0.25774357    -0.10100
H781        H  0.51191325  0.18159940  0.30090527     0.07800
H782        H  0.97788400  0.18643721  0.35538754     0.11500
H783        H  0.92043111  0.25549514  0.28500166     0.11200
H784        H  0.95449209  0.25047870  0.23066754     0.07800
C785        C  0.72246994  0.26012848  0.77506331    -0.11300
C786        C  0.74348715  0.28928830  0.77025316     0.05800
C787        C  0.74462344  0.32028202  0.79698548    -0.10100
C788        C  0.72583652  0.32120453  0.82899952    -0.11700
C789        C  0.70506603  0.29172873  0.83417723    -0.01500
C790        C  0.70314444  0.26161663  0.80647526    -0.10600
C791        C  0.76487747  0.28656771  0.73823373     0.05900
H792        H  0.76069934  0.34302903  0.79377977     0.07800
H793        H  0.72769463  0.34476599  0.84992944     0.11200
H794        H  0.68745933  0.23842257  0.80996101     0.11500
H795        H  0.72118724  0.23606575  0.75462846     0.07800
C796        C  0.78271114  0.25365459  0.73467949    -0.11300
C797        C  0.80298963  0.25084661  0.70447317    -0.10600
C798        C  0.80541229  0.28059440  0.67675852    -0.01500
C799        C  0.78754403  0.31361755  0.68049683    -0.11700
C800        C  0.76768246  0.31674967  0.71120443    -0.10100
H801        H  0.78101821  0.23019470  0.75546134     0.07800
H802        H  0.81632749  0.22499623  0.70233855     0.11500
H803        H  0.78889126  0.33704647  0.65964671     0.11200
H804        H  0.75411490  0.34238349  0.71347864     0.07800
C805        C  0.70751884  0.26432501  0.24177361    -0.11300
C806        C  0.73419868  0.28372246  0.23819692     0.05800
C807        C  0.74125938  0.30135558  0.20267060    -0.10100
C808        C  0.72193665  0.29976543  0.17143832    -0.11700
C809        C  0.69533233  0.28005581  0.17494301    -0.01500
C810        C  0.68837450  0.26235004  0.21049032    -0.10600
C811        C  0.75433027  0.28566851  0.27169822     0.05900
H812        H  0.76157131  0.31674667  0.19922096     0.07800
H813        H  0.72801439  0.31353422  0.14437011     0.11200
H814        H  0.66811348  0.24688444  0.21415802     0.11500
H815        H  0.70162713  0.25012744  0.26869504     0.07800
C816        C  0.74358730  0.29399014  0.30903395    -0.11300
C817        C  0.76202594  0.29439793  0.34104181    -0.10600
C818        C  0.79172925  0.28624141  0.33665566    -0.01500
C819        C  0.80263622  0.27849646  0.29916189    -0.11700
C820        C  0.78411729  0.27840131  0.26695701    -0.10100
H821        H  0.72082523  0.30024692  0.31348823     0.07800
H822        H  0.75282108  0.30063699  0.36940284     0.11500
H823        H  0.82538273  0.27214504  0.29475757     0.11200
H824        H  0.79294192  0.27169417  0.23848121     0.07800
C825        C  0.52672203  0.02464195  0.96387631    -0.11300
C826        C  0.51011432  0.01527678  0.99687840     0.05800
C827        C  0.50640852  0.04371266  0.02610023    -0.10100
C828        C  0.51945312  0.08026864  0.02275993    -0.11700
C829        C  0.53618991  0.08942622  0.98988023    -0.01500
C830        C  0.53945596  0.06134133  0.96032163    -0.10600
C831        C  0.99687532  0.97598343  0.00088021     0.05900
H832        H  0.49326884  0.03785497  0.05152313     0.07800
H833        H  0.51640366  0.10137062  0.04594445     0.11200
H834        H  0.55243203  0.06737864  0.93476891     0.11500
H835        H  0.03046116  0.00333768  0.94108841     0.07800
C836        C  0.98617412  0.95600290  0.96814345    -0.11300
C837        C  0.97359720  0.91923154  0.97192899    -0.10600
C838        C  0.97100695  0.90180171  0.00861202    -0.01500
C839        C  0.98177246  0.92156104  0.04133390    -0.11700
C840        C  0.49477289  0.95810499  0.03747624    -0.10100
H841        H  0.98692456  0.96908656  0.93962318     0.07800
H842        H  0.96515194  0.90492175  0.94621729     0.11500
H843        H  0.48017540  0.90874533  0.06993800     0.11200
H844        H  0.50332060  0.97222698  0.06319610     0.07800
C845        C  0.74723352  0.55408415  0.02367972    -0.11300
C846        C  0.75161677  0.52470452  0.99558351     0.05800
C847        C  0.76969309  0.53254884  0.96358744    -0.10100
C848        C  0.78335065  0.56859113  0.96002329    -0.11700
C849        C  0.77961646  0.59750072  0.98864094    -0.01500
C850        C  0.76124324  0.59001664  0.02037733    -0.10600
C851        C  0.73797260  0.48574330  0.99986885     0.05900
H852        H  0.77400097  0.51045359  0.94174645     0.07800
H853        H  0.79758322  0.57334651  0.93540806     0.11200
H854        H  0.75780591  0.61186194  0.04276832     0.11500
H855        H  0.73300039  0.54932918  0.04827521     0.07800
C856        C  0.73482263  0.46866667  0.03671352    -0.11300
C857        C  0.72246500  0.43170703  0.04052482    -0.10600
C858        C  0.71332938  0.41085397  0.00753699    -0.01500
C859        C  0.71658793  0.42780569  0.97073457    -0.11700
C860        C  0.72855510  0.46489381  0.96697313    -0.10100
H861        H  0.74230633  0.48357528  0.06260459     0.07800
H862        H  0.72027273  0.41934243  0.06926122     0.11500
H863        H  0.70939857  0.41268854  0.94478549     0.11200
H864        H  0.73009658  0.47739502  0.93824126     0.07800
loop_ 
_geom_bond_atom_site_label_1 
_geom_bond_atom_site_label_2 
_geom_bond_distance 
_geom_bond_site_symmetry_2 
_ccdc_geom_bond_type 
O1           Mg3   2.143   1_554  S
O1           Mg9   2.144       .  S
O1           C36   1.237       .  S
C2           O15   1.237       .  S
C2           O39   1.271       .  A
C2           H41   1.081       .  S
Mg3          O32   2.136       .  S
Mg3          O47   2.290       .  S
Mg3          O43   2.267       .  S
Mg3          O14   2.298       .  S
O4          Mg46   2.146       .  S
O4          Mg29   2.140       .  S
O4           C25   1.238       .  S
O5           C36   1.272       .  A
O5          Mg29   2.306       .  S
C6            O8   1.274       .  A
C6           O20   1.277       .  A
C6          C317   1.481       .  S
O7           C35   1.273   1_554  A
O7           Mg9   2.305       .  S
O8          Mg40   2.265       .  S
Mg9          O15   2.132       .  S
Mg9          O23   2.265       .  S
Mg9          O11   2.315       .  S
C10          O48   1.272       .  A
C10          O16   1.275   1_556  A
C10         C397   1.479       .  S
O11          C18   1.277       .  A
H12          C25   1.081       .  S
C13          O27   1.237       .  S
C13          O28   1.270       .  A
C13          H38   1.081       .  S
O14          C37   1.271       .  A
O15         Mg29   2.143       .  S
O16         Mg46   2.299       .  S
C17          O30   1.272       .  A
C17          O22   1.278       .  A
C17         C337   1.485       .  S
C18          O45   1.274       .  A
C18         C377   1.483       .  S
Mg19         O26   2.125       .  S
Mg19         O27   2.147       .  S
Mg19         O20   2.317       .  S
Mg19         O21   2.301       .  S
Mg19         O48   2.256       .  S
O21          C25   1.272   1_556  A
O22         Mg29   2.329       .  S
O23          C42   1.272       .  A
O24          C44   1.277       .  A
O24         Mg40   2.319       .  S
O26         Mg40   2.145       .  S
O26          C37   1.238       .  S
O27         Mg46   2.131   1_556  S
O28         Mg40   2.293       .  S
Mg29         O45   2.268       .  S
O30         Mg46   2.250       .  S
H31          C36   1.081       .  S
O32         Mg40   2.137       .  S
O32          C35   1.238       .  S
H33          C35   1.081       .  S
H34          C37   1.081       .  S
O39         Mg46   2.297       .  S
C42          O47   1.274   1_554  A
C42         C426   1.478       .  S
O43          C44   1.272       .  A
C44         C357   1.478       .  S
O49         Mg51   2.132   1_554  S
O49         Mg57   2.138       .  S
O49          C84   1.237       .  S
C50          O63   1.236       .  S
C50          O87   1.270       .  A
C50          H89   1.081       .  S
Mg51         O80   2.146       .  S
Mg51         O95   2.289       .  S
Mg51         O91   2.240       .  S
Mg51         O62   2.288       .  S
O52         Mg94   2.149       .  S
O52         Mg77   2.147       .  S
O52          C73   1.239       .  S
O53          C84   1.271       .  A
O53         Mg77   2.303       .  S
C54          O56   1.274       .  A
C54          O68   1.278       .  A
C54         C277   1.480       .  S
O55          C83   1.272   1_554  A
O55         Mg57   2.298       .  S
O56         Mg88   2.267       .  S
Mg57         O63   2.133       .  S
Mg57         O71   2.270       .  S
Mg57         O59   2.300       .  S
C58          O96   1.272       .  A
C58          O64   1.274   1_556  A
C58         C417   1.477       .  S
O59          C66   1.276       .  A
H60          C73   1.081       .  S
C61          O75   1.236       .  S
C61          O76   1.269       .  A
C61          H86   1.081       .  S
O62          C85   1.270       .  A
O63         Mg77   2.146       .  S
O64         Mg94   2.296       .  S
C65          O78   1.272       .  A
C65          O70   1.279       .  A
C65         C297   1.487       .  S
C66          O93   1.275       .  A
C66         C257   1.479       .  S
Mg67         O74   2.123       .  S
Mg67         O75   2.147       .  S
Mg67         O68   2.318       .  S
Mg67         O69   2.306       .  S
Mg67         O96   2.256       .  S
O69          C73   1.273   1_556  A
O70         Mg77   2.334       .  S
O71          C90   1.273       .  A
O72          C92   1.277       .  A
O72         Mg88   2.322       .  S
O74         Mg88   2.157       .  S
O74          C85   1.238       .  S
O75         Mg94   2.137   1_556  S
O76         Mg88   2.294       .  S
Mg77         O93   2.276       .  S
O78         Mg94   2.252       .  S
H79          C84   1.081       .  S
O80         Mg88   2.130       .  S
O80          C83   1.238       .  S
H81          C83   1.081       .  S
H82          C85   1.081       .  S
O87         Mg94   2.295       .  S
C90          O95   1.273   1_554  A
C90         C406   1.478       .  S
O91          C92   1.270       .  A
C92         C237   1.472       .  S
O97         Mg99   2.146       .  S
O97        Mg105   2.144       .  S
O97         C132   1.237       .  S
C98         O111   1.237       .  S
C98         O135   1.270       .  A
C98         H137   1.081       .  S
Mg99        O128   2.140       .  S
Mg99        O143   2.288       .  S
Mg99        O139   2.266       .  S
Mg99        O110   2.296       .  S
O100       Mg142   2.149       .  S
O100       Mg125   2.138       .  S
O100        C121   1.238       .  S
O101        C132   1.272       .  A
O101       Mg125   2.306       .  S
C102        O104   1.275       .  A
C102        O116   1.276       .  A
C102        C366   1.484       .  S
O103        C131   1.273       .  A
O103       Mg105   2.307       .  S
O104       Mg136   2.276       .  S
Mg105       O111   2.128       .  S
Mg105       O119   2.258       .  S
Mg105       O107   2.306       .  S
C106        O144   1.271       .  A
C106        O112   1.275       .  A
C106        C226   1.476       .  S
O107        C114   1.276       .  A
H108        C121   1.081       .  S
C109        O123   1.237       .  S
C109        O124   1.270       .  A
C109        H134   1.081       .  S
O110        C133   1.270       .  A
O111       Mg125   2.144       .  S
O112       Mg142   2.299       .  S
C113        O126   1.273       .  A
C113        O118   1.279       .  A
C113        C386   1.486       .  S
C114        O141   1.275       .  A
C114        C346   1.486       .  S
Mg115       O122   2.124       .  S
Mg115       O123   2.149       .  S
Mg115       O116   2.304       .  S
Mg115       O117   2.298       .  S
Mg115       O144   2.247       .  S
O117        C121   1.271       .  A
O118       Mg125   2.333       .  S
O119        C138   1.271       .  A
O120        C140   1.278       .  A
O120       Mg136   2.326       .  S
O122       Mg136   2.146       .  S
O122        C133   1.237       .  S
O123       Mg142   2.138       .  S
O124       Mg136   2.297       .  S
Mg125       O141   2.281       .  S
O126       Mg142   2.250       .  S
H127        C132   1.081       .  S
O128       Mg136   2.139       .  S
O128        C131   1.239       .  S
H129        C131   1.081       .  S
H130        C133   1.081       .  S
O135       Mg142   2.293       .  S
C138        O143   1.273       .  A
C138        C197   1.476       .  S
O139        C140   1.273       .  A
C140        C326   1.481       .  S
O145       Mg147   2.140       .  S
O145       Mg153   2.139       .  S
O145        C180   1.237       .  S
C146        O159   1.237       .  S
C146        O183   1.271       .  A
C146        H185   1.081       .  S
Mg147       O176   2.140       .  S
Mg147       O191   2.297       .  S
Mg147       O187   2.262       .  S
Mg147       O158   2.300       .  S
O148       Mg190   2.146       .  S
O148       Mg173   2.133       .  S
O148        C169   1.238       .  S
O149        C180   1.272       .  A
O149       Mg173   2.304       .  S
C150        O152   1.273       .  A
C150        O164   1.273       .  A
C150        C246   1.472       .  S
O151        C179   1.274       .  A
O151       Mg153   2.311       .  S
O152       Mg184   2.275       .  S
Mg153       O159   2.130       .  S
Mg153       O167   2.256       .  S
Mg153       O155   2.320       .  S
C154        O192   1.270       .  A
C154        O160   1.274       .  A
C154        C206   1.478       .  S
O155        C162   1.277       .  A
H156        C169   1.081       .  S
C157        O171   1.237       .  S
C157        O172   1.271       .  A
C157        H182   1.081       .  S
O158        C181   1.271       .  A
O159       Mg173   2.141       .  S
O160       Mg190   2.300       .  S
C161        O174   1.271       .  A
C161        O166   1.278       .  A
C161        C266   1.482       .  S
C162        O189   1.274       .  A
C162        C306   1.486       .  S
Mg163       O170   2.127       .  S
Mg163       O171   2.141       .  S
Mg163       O164   2.297       .  S
Mg163       O165   2.296       .  S
Mg163       O192   2.247       .  S
O165        C169   1.271       .  A
O166       Mg173   2.322       .  S
O167        C186   1.271       .  A
O168        C188   1.277       .  A
O168       Mg184   2.320       .  S
O170       Mg184   2.134       .  S
O170        C181   1.237       .  S
O171       Mg190   2.128       .  S
O172       Mg184   2.303       .  S
Mg173       O189   2.268       .  S
O174       Mg190   2.242       .  S
H175        C180   1.081       .  S
O176       Mg184   2.145       .  S
O176        C179   1.239       .  S
H177        C179   1.081       .  S
H178        C181   1.081       .  S
O183       Mg190   2.296       .  S
C186        O191   1.274       .  A
C186        C217   1.477       .  S
O187        C188   1.272       .  A
C188        C286   1.479       .  S
C193        H203   1.083       .  S
C193        C626   1.406       .  A
C193        C630   1.394       .  A
C194        C631   1.485   1_545  S
C194        C195   1.407       .  A
C194        C625   1.406       .  A
C195        H200   1.082       .  S
C195        C196   1.397       .  A
C196        H201   1.083       .  S
C196        C197   1.404       .  A
C197        C198   1.404       .  A
C198        H202   1.083       .  S
C198        C625   1.394       .  A
C199        C626   1.485   1_465  S
C199        C204   1.406       .  A
C199        C640   1.407       .  A
C204        H209   1.082       .  S
C204        C205   1.394       .  A
C205        H210   1.083       .  S
C205        C206   1.404       .  A
C206        C207   1.405       .  A
C207        H643   1.083       .  S
C207        C640   1.398       .  A
C208        H212   1.083       .  S
C208        C631   1.407       .  A
C208        C639   1.398       .  A
H211        C639   1.083       .  S
C213        H223   1.083       .  S
C213        C214   1.407       .  A
C213        C218   1.395       .  A
C214        C219   1.486       .  S
C214        C215   1.407       .  A
C215        H220   1.082       .  S
C215        C216   1.397       .  A
C216        H221   1.083       .  S
C216        C217   1.405       .  A
C217        C218   1.404       .  A
C218        H222   1.083       .  S
C219        C224   1.406       .  A
C219        C228   1.408       .  A
C224        H229   1.082       .  S
C224        C225   1.393       .  A
C225        H230   1.083       .  S
C225        C226   1.404       .  A
C226        C227   1.404       .  A
C227        H231   1.083       .  S
C227        C228   1.398       .  A
C228        H232   1.083       .  S
C233        H243   1.081       .  S
C233        C234   1.412       .  A
C233        C238   1.402       .  A
C234        C671   1.496       .  S
C234        C235   1.408       .  A
C235        H672   1.081       .  S
C235        C236   1.394       .  A
C236        H241   1.083       .  S
C236        C237   1.401       .  A
C237        C238   1.401       .  A
C238        H242   1.083       .  S
C239        C666   1.496   1_455  S
C239        C244   1.409       .  A
C239        C248   1.412       .  A
H240        C667   1.081       .  S
C244        H681   1.081   1_455  S
C244        C245   1.398       .  A
C245        H250   1.083       .  S
C245        C246   1.403       .  A
C246        C247   1.399       .  A
C247        H251   1.084       .  S
C247        C248   1.398       .  A
C248        H252   1.081       .  S
H249        C676   1.081       .  S
C253        H263   1.083       .  S
C253        C254   1.405       .  A
C253        C258   1.398       .  A
C254        C691   1.480       .  S
C254        C255   1.403       .  A
C255        H692   1.083       .  S
C255        C256   1.397       .  A
C256        H261   1.083       .  S
C256        C257   1.406       .  A
C257        C258   1.405       .  A
C258        H262   1.083       .  S
C259        C686   1.480   1_455  S
C259        C264   1.402   1_455  A
C259        C268   1.405       .  A
H260        C687   1.083   1_455  S
C264        H701   1.083       .  S
C264        C265   1.395   1_655  A
C265        H270   1.083       .  S
C265        C266   1.408       .  A
C266        C267   1.406       .  A
C267        H271   1.083       .  S
C267        C268   1.399       .  A
C268        H272   1.083       .  S
H269        C696   1.083       .  S
C273        H283   1.083       .  S
C273        C274   1.406       .  A
C273        C278   1.400       .  A
C274        C279   1.485       .  S
C274        C275   1.405       .  A
C275        H280   1.083       .  S
C275        C276   1.399       .  A
C276        H281   1.083       .  S
C276        C277   1.406       .  A
C277        C278   1.404       .  A
C278        H282   1.083       .  S
C279        C284   1.405       .  A
C279        C288   1.406       .  A
C284        H289   1.083       .  S
C284        C285   1.398       .  A
C285        H290   1.083       .  S
C285        C286   1.405       .  A
C286        C287   1.405       .  A
C287        H291   1.083       .  S
C287        C288   1.400       .  A
C288        H292   1.083       .  S
C293        H303   1.083       .  S
C293        C294   1.403       .  A
C293        C298   1.396       .  A
C294        C299   1.487       .  S
C294        C295   1.407       .  A
C295        H300   1.083       .  S
C295        C296   1.404       .  A
C296        H301   1.083       .  S
C296        C297   1.407       .  A
C297        C298   1.407       .  A
C298        H302   1.083       .  S
C299        C304   1.406       .  A
C299        C308   1.405       .  A
C304        H309   1.083       .  S
C304        C305   1.398       .  A
C305        H310   1.083       .  S
C305        C306   1.406       .  A
C306        C307   1.408       .  A
C307        H311   1.083       .  S
C307        C308   1.402       .  A
C308        H312   1.083       .  S
C313        H755   1.083       .  S
C313        C314   1.404       .  A
C313        C318   1.398       .  A
C314        C751   1.484   1_455  S
C314        C315   1.406       .  A
C315        H320   1.083       .  S
C315        C316   1.402       .  A
C316        H321   1.083       .  S
C316        C317   1.405       .  A
C317        C318   1.406       .  A
C318        H322   1.083       .  S
C319        C746   1.484       .  S
C319        C324   1.406       .  A
C319        C328   1.404       .  A
H323        C745   1.083       .  S
C324        H329   1.083       .  S
C324        C325   1.400       .  A
C325        H330   1.083       .  S
C325        C326   1.405       .  A
C326        C327   1.406       .  A
C327        H331   1.083       .  S
C327        C328   1.400       .  A
C328        H764   1.083       .  S
H332        C760   1.083   1_455  S
C333        H343   1.083       .  S
C333        C334   1.407       .  A
C333        C338   1.403       .  A
C334        C771   1.485   1_455  S
C334        C335   1.403   1_455  A
C335        H772   1.083       .  S
C335        C336   1.395   1_655  A
C336        H341   1.083       .  S
C336        C337   1.407       .  A
C337        C338   1.407       .  A
C338        H342   1.083       .  S
C339        C766   1.485       .  S
C339        C344   1.404       .  A
C339        C348   1.406       .  A
H340        C767   1.083       .  S
C344        H781   1.083       .  S
C344        C345   1.400       .  A
C345        H350   1.083       .  S
C345        C346   1.408       .  A
C346        C347   1.406       .  A
C347        H351   1.083       .  S
C347        C348   1.399       .  A
C348        H352   1.083       .  S
H349        C776   1.083   1_455  S
C353        H363   1.083       .  S
C353        C354   1.404       .  A
C353        C358   1.399       .  A
C354        C359   1.479       .  S
C354        C355   1.403       .  A
C355        H360   1.083       .  S
C355        C356   1.400       .  A
C356        H361   1.083       .  S
C356        C357   1.406       .  A
C357        C358   1.405       .  A
C358        H362   1.083       .  S
C359        C364   1.403       .  A
C359        C368   1.403       .  A
C364        H369   1.083       .  S
C364        C365   1.399       .  A
C365        H370   1.083       .  S
C365        C366   1.406       .  A
C366        C367   1.408       .  A
C367        H371   1.083       .  S
C367        C368   1.400       .  A
C368        H372   1.083       .  S
C373        H383   1.083       .  S
C373        C374   1.405       .  A
C373        C378   1.397       .  A
C374        C379   1.485       .  S
C374        C375   1.405       .  A
C375        H380   1.083       .  S
C375        C376   1.400       .  A
C376        H381   1.083       .  S
C376        C377   1.407       .  A
C377        C378   1.405       .  A
C378        H382   1.083       .  S
C379        C384   1.403       .  A
C379        C388   1.407       .  A
C384        H389   1.083       .  S
C384        C385   1.395       .  A
C385        H390   1.083       .  S
C385        C386   1.407       .  A
C386        C387   1.407       .  A
C387        H391   1.083       .  S
C387        C388   1.403       .  A
C388        H392   1.083       .  S
C393        H835   1.082       .  S
C393        C394   1.407       .  A
C393        C398   1.396       .  A
C394        C831   1.488   1_446  S
C394        C395   1.407   1_556  A
C395        H400   1.082   1_455  S
C395        C396   1.397       .  A
C396        H401   1.083       .  S
C396        C397   1.405   1_554  A
C397        C398   1.405       .  A
C398        H402   1.083       .  S
C399        C826   1.488   1_564  S
C399        C404   1.406   1_554  A
C399        C840   1.408       .  A
H403        C825   1.082       .  S
C404        H409   1.082       .  S
C404        C405   1.396       .  A
C405        H410   1.083       .  S
C405        C406   1.405   1_556  A
C406        C407   1.403       .  A
C407        H843   1.083       .  S
C407        C840   1.398       .  A
C408        H412   1.082   1_655  S
C408        C831   1.408       .  A
C408        C839   1.398       .  A
H411        C839   1.083       .  S
C413        H423   1.083       .  S
C413        C414   1.407   1_554  A
C413        C418   1.398       .  A
C414        C419   1.486       .  S
C414        C415   1.406       .  A
C415        H420   1.082       .  S
C415        C416   1.395       .  A
C416        H421   1.083       .  S
C416        C417   1.404       .  A
C417        C418   1.405   1_556  A
C418        H422   1.083       .  S
C419        C424   1.407   1_556  A
C419        C428   1.406       .  A
C424        H429   1.082       .  S
C424        C425   1.398       .  A
C425        H430   1.083       .  S
C425        C426   1.404       .  A
C426        C427   1.405   1_554  A
C427        H431   1.083       .  S
C427        C428   1.395       .  A
C428        H432   1.083       .  S
O433       Mg435   2.143   1_554  S
O433       Mg441   2.144       .  S
O433        C468   1.237       .  S
C434        O447   1.237       .  S
C434        O471   1.271       .  A
C434        H473   1.081       .  S
Mg435       O464   2.136       .  S
Mg435       O479   2.290       .  S
Mg435       O475   2.267       .  S
Mg435       O446   2.298       .  S
O436       Mg478   2.146       .  S
O436       Mg461   2.140       .  S
O436        C457   1.238       .  S
O437        C468   1.272       .  A
O437       Mg461   2.306       .  S
C438        O440   1.274       .  A
C438        O452   1.277       .  A
C438        C749   1.481       .  S
O439        C467   1.273   1_554  A
O439       Mg441   2.305       .  S
O440       Mg472   2.265       .  S
Mg441       O447   2.132       .  S
Mg441       O455   2.265       .  S
Mg441       O443   2.315       .  S
C442        O480   1.272       .  A
C442        O448   1.275   1_556  A
C442        C829   1.479       .  S
O443        C450   1.277       .  A
H444        C457   1.081       .  S
C445        O459   1.237       .  S
C445        O460   1.270       .  A
C445        H470   1.081       .  S
O446        C469   1.271       .  A
O447       Mg461   2.143       .  S
O448       Mg478   2.299       .  S
C449        O462   1.272       .  A
C449        O454   1.278       .  A
C449        C769   1.485       .  S
C450        O477   1.274       .  A
C450        C809   1.483       .  S
Mg451       O458   2.125       .  S
Mg451       O459   2.147       .  S
Mg451       O452   2.317       .  S
Mg451       O453   2.301       .  S
Mg451       O480   2.256       .  S
O453        C457   1.272   1_556  A
O454       Mg461   2.329       .  S
O455        C474   1.272       .  A
O456        C476   1.277       .  A
O456       Mg472   2.319       .  S
O458       Mg472   2.145       .  S
O458        C469   1.238       .  S
O459       Mg478   2.131   1_556  S
O460       Mg472   2.293       .  S
Mg461       O477   2.268       .  S
O462       Mg478   2.250       .  S
H463        C468   1.081       .  S
O464       Mg472   2.137       .  S
O464        C467   1.238       .  S
H465        C467   1.081       .  S
H466        C469   1.081       .  S
O471       Mg478   2.297       .  S
C474        O479   1.274   1_554  A
C474        C858   1.478       .  S
O475        C476   1.272       .  A
C476        C789   1.478       .  S
O481       Mg483   2.132   1_554  S
O481       Mg489   2.138       .  S
O481        C516   1.237       .  S
C482        O495   1.236       .  S
C482        O519   1.270       .  A
C482        H521   1.081       .  S
Mg483       O512   2.146       .  S
Mg483       O527   2.289       .  S
Mg483       O523   2.240       .  S
Mg483       O494   2.288       .  S
O484       Mg526   2.149       .  S
O484       Mg509   2.147       .  S
O484        C505   1.239       .  S
O485        C516   1.271       .  A
O485       Mg509   2.303       .  S
C486        O488   1.274       .  A
C486        O500   1.278       .  A
C486        C709   1.480       .  S
O487        C515   1.272   1_554  A
O487       Mg489   2.298       .  S
O488       Mg520   2.267       .  S
Mg489       O495   2.133       .  S
Mg489       O503   2.270       .  S
Mg489       O491   2.300       .  S
C490        O528   1.272       .  A
C490        O496   1.274   1_556  A
C490        C849   1.477       .  S
O491        C498   1.276       .  A
H492        C505   1.081       .  S
C493        O507   1.236       .  S
C493        O508   1.269       .  A
C493        H518   1.081       .  S
O494        C517   1.270       .  A
O495       Mg509   2.146       .  S
O496       Mg526   2.296       .  S
C497        O510   1.272       .  A
C497        O502   1.279       .  A
C497        C729   1.487       .  S
C498        O525   1.275       .  A
C498        C689   1.479       .  S
Mg499       O506   2.123       .  S
Mg499       O507   2.147       .  S
Mg499       O500   2.318       .  S
Mg499       O501   2.306       .  S
Mg499       O528   2.256       .  S
O501        C505   1.273   1_556  A
O502       Mg509   2.334       .  S
O503        C522   1.273       .  A
O504        C524   1.277       .  A
O504       Mg520   2.322       .  S
O506       Mg520   2.157       .  S
O506        C517   1.238       .  S
O507       Mg526   2.137   1_556  S
O508       Mg520   2.294       .  S
Mg509       O525   2.276       .  S
O510       Mg526   2.252       .  S
H511        C516   1.081       .  S
O512       Mg520   2.130       .  S
O512        C515   1.238       .  S
H513        C515   1.081       .  S
H514        C517   1.081       .  S
O519       Mg526   2.295       .  S
C522        O527   1.273   1_554  A
C522        C838   1.478       .  S
O523        C524   1.270       .  A
C524        C669   1.472       .  S
O529       Mg531   2.146       .  S
O529       Mg537   2.144       .  S
O529        C564   1.237       .  S
C530        O543   1.237       .  S
C530        O567   1.270       .  A
C530        H569   1.081       .  S
Mg531       O560   2.140       .  S
Mg531       O575   2.288       .  S
Mg531       O571   2.266       .  S
Mg531       O542   2.296       .  S
O532       Mg574   2.149       .  S
O532       Mg557   2.138       .  S
O532        C553   1.238       .  S
O533        C564   1.272       .  A
O533       Mg557   2.306       .  S
C534        O536   1.275       .  A
C534        O548   1.276       .  A
C534        C798   1.484       .  S
O535        C563   1.273       .  A
O535       Mg537   2.307       .  S
O536       Mg568   2.276       .  S
Mg537       O543   2.128       .  S
Mg537       O551   2.258       .  S
Mg537       O539   2.306       .  S
C538        O576   1.271       .  A
C538        O544   1.275       .  A
C538        C658   1.476       .  S
O539        C546   1.276       .  A
H540        C553   1.081       .  S
C541        O555   1.237       .  S
C541        O556   1.270       .  A
C541        H566   1.081       .  S
O542        C565   1.270       .  A
O543       Mg557   2.144       .  S
O544       Mg574   2.299       .  S
C545        O558   1.273       .  A
C545        O550   1.279       .  A
C545        C818   1.486       .  S
C546        O573   1.275       .  A
C546        C778   1.486       .  S
Mg547       O554   2.124       .  S
Mg547       O555   2.149       .  S
Mg547       O548   2.304       .  S
Mg547       O549   2.298       .  S
Mg547       O576   2.247       .  S
O549        C553   1.271       .  A
O550       Mg557   2.333       .  S
O551        C570   1.271       .  A
O552        C572   1.278       .  A
O552       Mg568   2.326       .  S
O554       Mg568   2.146       .  S
O554        C565   1.237       .  S
O555       Mg574   2.138       .  S
O556       Mg568   2.297       .  S
Mg557       O573   2.281       .  S
O558       Mg574   2.250       .  S
H559        C564   1.081       .  S
O560       Mg568   2.139       .  S
O560        C563   1.239       .  S
H561        C563   1.081       .  S
H562        C565   1.081       .  S
O567       Mg574   2.293       .  S
C570        O575   1.273       .  A
C570        C629   1.476       .  S
O571        C572   1.273       .  A
C572        C758   1.481       .  S
O577       Mg579   2.140       .  S
O577       Mg585   2.139       .  S
O577        C612   1.237       .  S
C578        O591   1.237       .  S
C578        O615   1.271       .  A
C578        H617   1.081       .  S
Mg579       O608   2.140       .  S
Mg579       O623   2.297       .  S
Mg579       O619   2.262       .  S
Mg579       O590   2.300       .  S
O580       Mg622   2.146       .  S
O580       Mg605   2.133       .  S
O580        C601   1.238       .  S
O581        C612   1.272       .  A
O581       Mg605   2.304       .  S
C582        O584   1.273       .  A
C582        O596   1.273       .  A
C582        C678   1.472       .  S
O583        C611   1.274       .  A
O583       Mg585   2.311       .  S
O584       Mg616   2.275       .  S
Mg585       O591   2.130       .  S
Mg585       O599   2.256       .  S
Mg585       O587   2.320       .  S
C586        O624   1.270       .  A
C586        O592   1.274       .  A
C586        C638   1.478       .  S
O587        C594   1.277       .  A
H588        C601   1.081       .  S
C589        O603   1.237       .  S
C589        O604   1.271       .  A
C589        H614   1.081       .  S
O590        C613   1.271       .  A
O591       Mg605   2.141       .  S
O592       Mg622   2.300       .  S
C593        O606   1.271       .  A
C593        O598   1.278       .  A
C593        C698   1.482       .  S
C594        O621   1.274       .  A
C594        C738   1.486       .  S
Mg595       O602   2.127       .  S
Mg595       O603   2.141       .  S
Mg595       O596   2.297       .  S
Mg595       O597   2.296       .  S
Mg595       O624   2.247       .  S
O597        C601   1.271       .  A
O598       Mg605   2.322       .  S
O599        C618   1.271       .  A
O600        C620   1.277       .  A
O600       Mg616   2.320       .  S
O602       Mg616   2.134       .  S
O602        C613   1.237       .  S
O603       Mg622   2.128       .  S
O604       Mg616   2.303       .  S
Mg605       O621   2.268       .  S
O606       Mg622   2.242       .  S
H607        C612   1.081       .  S
O608       Mg616   2.145       .  S
O608        C611   1.239       .  S
H609        C611   1.081       .  S
H610        C613   1.081       .  S
O615       Mg622   2.296       .  S
C618        O623   1.274       .  A
C618        C649   1.477       .  S
O619        C620   1.272       .  A
C620        C718   1.479       .  S
C625        H635   1.083       .  S
C626        C627   1.407       .  A
C627        H632   1.082       .  S
C627        C628   1.397       .  A
C628        H633   1.083       .  S
C628        C629   1.404       .  A
C629        C630   1.404       .  A
C630        H634   1.083       .  S
C631        C636   1.406       .  A
C636        H641   1.082       .  S
C636        C637   1.394       .  A
C637        H642   1.083       .  S
C637        C638   1.404       .  A
C638        C639   1.405       .  A
C640        H644   1.083   1_455  S
C645        H655   1.083       .  S
C645        C646   1.407       .  A
C645        C650   1.395       .  A
C646        C651   1.486       .  S
C646        C647   1.407       .  A
C647        H652   1.082       .  S
C647        C648   1.397       .  A
C648        H653   1.083       .  S
C648        C649   1.405       .  A
C649        C650   1.404       .  A
C650        H654   1.083       .  S
C651        C656   1.406       .  A
C651        C660   1.408       .  A
C656        H661   1.082       .  S
C656        C657   1.393       .  A
C657        H662   1.083       .  S
C657        C658   1.404       .  A
C658        C659   1.404       .  A
C659        H663   1.083       .  S
C659        C660   1.398       .  A
C660        H664   1.083       .  S
C665        H675   1.081       .  S
C665        C666   1.412       .  A
C665        C670   1.402       .  A
C666        C667   1.408   1_655  A
C667        C668   1.394   1_455  A
C668        H673   1.083       .  S
C668        C669   1.401       .  A
C669        C670   1.401       .  A
C670        H674   1.083       .  S
C671        C676   1.409       .  A
C671        C680   1.412       .  A
C676        C677   1.398       .  A
C677        H682   1.083       .  S
C677        C678   1.403       .  A
C678        C679   1.399       .  A
C679        H683   1.084       .  S
C679        C680   1.398       .  A
C680        H684   1.081       .  S
C685        H695   1.083       .  S
C685        C686   1.405       .  A
C685        C690   1.398       .  A
C686        C687   1.403       .  A
C687        C688   1.397       .  A
C688        H693   1.083       .  S
C688        C689   1.406       .  A
C689        C690   1.405       .  A
C690        H694   1.083       .  S
C691        C696   1.402       .  A
C691        C700   1.405       .  A
C696        C697   1.395       .  A
C697        H702   1.083       .  S
C697        C698   1.408       .  A
C698        C699   1.406       .  A
C699        H703   1.083       .  S
C699        C700   1.399       .  A
C700        H704   1.083       .  S
C705        H715   1.083       .  S
C705        C706   1.406       .  A
C705        C710   1.400       .  A
C706        C711   1.485       .  S
C706        C707   1.405       .  A
C707        H712   1.083       .  S
C707        C708   1.399       .  A
C708        H713   1.083       .  S
C708        C709   1.406       .  A
C709        C710   1.404       .  A
C710        H714   1.083       .  S
C711        C716   1.405       .  A
C711        C720   1.406       .  A
C716        H721   1.083       .  S
C716        C717   1.398       .  A
C717        H722   1.083       .  S
C717        C718   1.405       .  A
C718        C719   1.405       .  A
C719        H723   1.083       .  S
C719        C720   1.400       .  A
C720        H724   1.083       .  S
C725        H735   1.083       .  S
C725        C726   1.403       .  A
C725        C730   1.396       .  A
C726        C731   1.487       .  S
C726        C727   1.407       .  A
C727        H732   1.083       .  S
C727        C728   1.404       .  A
C728        H733   1.083       .  S
C728        C729   1.407       .  A
C729        C730   1.407       .  A
C730        H734   1.083       .  S
C731        C736   1.405       .  A
C731        C740   1.405       .  A
C736        H741   1.083       .  S
C736        C737   1.398       .  A
C737        H742   1.083       .  S
C737        C738   1.406       .  A
C738        C739   1.408       .  A
C739        H743   1.083       .  S
C739        C740   1.402       .  A
C740        H744   1.083       .  S
C745        C746   1.404       .  A
C745        C750   1.398       .  A
C746        C747   1.406       .  A
C747        H752   1.083       .  S
C747        C748   1.402       .  A
C748        H753   1.083       .  S
C748        C749   1.405       .  A
C749        C750   1.406       .  A
C750        H754   1.083       .  S
C751        C756   1.406       .  A
C751        C760   1.404       .  A
C756        H761   1.083       .  S
C756        C757   1.400       .  A
C757        H762   1.083       .  S
C757        C758   1.405       .  A
C758        C759   1.406       .  A
C759        H763   1.083       .  S
C759        C760   1.400       .  A
C765        H775   1.083       .  S
C765        C766   1.407       .  A
C765        C770   1.403       .  A
C766        C767   1.403       .  A
C767        C768   1.395       .  A
C768        H773   1.083       .  S
C768        C769   1.407       .  A
C769        C770   1.407       .  A
C770        H774   1.083       .  S
C771        C776   1.404       .  A
C771        C780   1.406       .  A
C776        C777   1.400       .  A
C777        H782   1.083       .  S
C777        C778   1.408       .  A
C778        C779   1.406       .  A
C779        H783   1.083       .  S
C779        C780   1.399       .  A
C780        H784   1.083       .  S
C785        H795   1.083       .  S
C785        C786   1.404       .  A
C785        C790   1.399       .  A
C786        C791   1.479       .  S
C786        C787   1.403       .  A
C787        H792   1.083       .  S
C787        C788   1.400       .  A
C788        H793   1.083       .  S
C788        C789   1.406       .  A
C789        C790   1.405       .  A
C790        H794   1.083       .  S
C791        C796   1.403       .  A
C791        C800   1.403       .  A
C796        H801   1.083       .  S
C796        C797   1.399       .  A
C797        H802   1.083       .  S
C797        C798   1.406       .  A
C798        C799   1.408       .  A
C799        H803   1.083       .  S
C799        C800   1.400       .  A
C800        H804   1.083       .  S
C805        H815   1.083       .  S
C805        C806   1.405       .  A
C805        C810   1.397       .  A
C806        C811   1.485       .  S
C806        C807   1.405       .  A
C807        H812   1.083       .  S
C807        C808   1.400       .  A
C808        H813   1.083       .  S
C808        C809   1.407       .  A
C809        C810   1.405       .  A
C810        H814   1.083       .  S
C811        C816   1.403       .  A
C811        C820   1.407       .  A
C816        H821   1.083       .  S
C816        C817   1.395       .  A
C817        H822   1.083       .  S
C817        C818   1.407       .  A
C818        C819   1.407       .  A
C819        H823   1.083       .  S
C819        C820   1.403       .  A
C820        H824   1.083       .  S
C825        C826   1.407       .  A
C825        C830   1.396       .  A
C826        C827   1.407   1_556  A
C827        H832   1.082       .  S
C827        C828   1.397       .  A
C828        H833   1.083       .  S
C828        C829   1.405   1_554  A
C829        C830   1.405       .  A
C830        H834   1.083       .  S
C831        C836   1.406   1_554  A
C836        H841   1.082       .  S
C836        C837   1.396       .  A
C837        H842   1.083       .  S
C837        C838   1.405   1_556  A
C838        C839   1.403       .  A
C840        H844   1.082       .  S
C845        H855   1.083       .  S
C845        C846   1.407   1_554  A
C845        C850   1.398       .  A
C846        C851   1.486       .  S
C846        C847   1.406       .  A
C847        H852   1.082       .  S
C847        C848   1.395       .  A
C848        H853   1.083       .  S
C848        C849   1.404       .  A
C849        C850   1.405   1_556  A
C850        H854   1.083       .  S
C851        C856   1.407   1_556  A
C851        C860   1.406       .  A
C856        H861   1.082       .  S
C856        C857   1.398       .  A
C857        H862   1.083       .  S
C857        C858   1.404       .  A
C858        C859   1.405   1_554  A
C859        H863   1.083       .  S
C859        C860   1.395       .  A
C860        H864   1.083       .  S
