geometry optimzed in LAMMPS
_audit_creation_date              2020-11-30 
_audit_creation_method            'lammps2cif' 
_symmetry_space_group_name_H-M    'P1' 
_symmetry_Int_Tables_number       1 
_symmetry_cell_setting            triclinic 
loop_ 
_symmetry_equiv_pos_as_xyz 
  x,y,z 
_cell_length_a                    48.17718152 
_cell_length_b                    49.36701080865808 
_cell_length_c                    36.446125977994896 
_cell_angle_alpha                 102.87829140306239 
_cell_angle_beta                  84.14059410913677 
_cell_angle_gamma                 89.11220860911952 
loop_ 
_atom_site_label 
_atom_site_type_symbol 
_atom_site_fract_x 
_atom_site_fract_y 
_atom_site_fract_z 
_atom_site_charge 
N1          N  0.40038078  0.09583059  0.49202524    -0.03600
C2          C  0.37447548  0.10825936  0.50147147    -0.01000
C3          C  0.36055629  0.09644594  0.03048365    -0.23900
C4          C  0.37871441  0.07774063  0.03875284    -0.24100
C5          C  0.40298439  0.07760115  0.01504570    -0.01100
H6          H  0.34052266  0.10368942  0.04618095     0.12700
H7          H  0.37563198  0.06758235  0.06220444     0.12700
N8          N  0.12979738  0.46574337  0.44676102    -0.03600
C9          C  0.15303057  0.44892545  0.44269789    -0.01000
C10         C  0.16310447  0.44034282  0.40492459    -0.23900
C11         C  0.14522543  0.45178926  0.38496032    -0.24100
C12         C  0.12472887  0.46687321  0.41116349    -0.01100
H13         H  0.18048234  0.42582008  0.39303246     0.12700
H14         H  0.14635643  0.44855316  0.35447277     0.12700
Zr15       Zr  0.28155352  0.27184220  0.06918659     2.17500
O16         O  0.32371326  0.26350555  0.09747596    -0.51400
O17         O  0.25563868  0.24622975  0.11144654    -0.74600
O18         O  0.29121838  0.30884744  0.12389142    -0.81400
O19         O  0.29977803  0.21108781  0.48396199    -0.83200
O20         O  0.26811064  0.34905091  0.12250677    -0.78800
O21         O  0.31094037  0.22896225  0.04283775    -0.90400
O22         O  0.20957897  0.24749639  0.10285453    -0.76400
O23         O  0.23793335  0.29775176  0.08567666    -0.85900
O24         O  0.24804468  0.24422370  0.03541148    -0.85600
O25         O  0.28877536  0.31505178  0.04929893    -0.72300
O26         O  0.29797860  0.26599323  0.50194074    -0.84500
Zr27       Zr  0.22625231  0.30609971  0.46720819     2.26400
Zr28       Zr  0.24454596  0.34049412  0.06505759     2.06300
Zr29       Zr  0.26253266  0.23907374  0.47104054     2.10000
Zr30       Zr  0.20470187  0.27014329  0.05146026     1.78800
O31         O  0.28879315  0.20689868  0.41792874    -0.93300
O32         O  0.17221019  0.29667359  0.10307488    -0.41100
O33         O  0.21843438  0.26367879  0.48752775    -0.77700
O34         O  0.21020630  0.31316754  0.03201812    -0.96400
O35         O  0.26058515  0.33416660  0.49816032    -0.89700
O36         O  0.26958760  0.28063180  0.44938548    -0.92500
C37         C  0.23003959  0.24022190  0.11876274     1.01200
C38         C  0.31245358  0.20918968  0.01267546     1.14100
C39         C  0.28428024  0.33475561  0.13763804     1.04900
O40         O  0.20816667  0.35871415  0.11652542    -0.94700
O41         O  0.21660628  0.37425647  0.04228926    -0.90400
O42         O  0.20626537  0.35268573  0.48446025    -0.83600
C43         C  0.20683232  0.37431690  0.51132756     1.11600
O44         O  0.35134507  0.30984177  0.49712362    -0.96700
Zr45       Zr  0.30355304  0.30826777  0.48050750     1.88900
O46         O  0.24895595  0.32686708  0.41860300    -0.73300
O47         O  0.26843688  0.38404490  0.06953005    -0.52600
O48         O  0.32055592  0.35533520  0.49136007    -0.97300
O49         O  0.33578614  0.27853959  0.43151565    -0.54500
O50         O  0.29546779  0.32507569  0.42427136    -0.73800
C51         C  0.27442466  0.33074562  0.40784762     0.98500
O52         O  0.17863598  0.30853165  0.45044363    -0.62600
O53         O  0.23222019  0.20092830  0.47692189    -0.57500
O54         O  0.22063500  0.27303693  0.40808716    -0.94100
O55         O  0.24597903  0.23408857  0.40942488    -0.92600
O56         O  0.18422675  0.22512686  0.03098342    -0.92900
O57         O  0.15677410  0.27164681  0.03604400    -0.91700
C58         C  0.23087726  0.24842064  0.39315889     1.17400
H59         H  0.24680822  0.22610250  0.04128248     0.33300
H60         H  0.19244332  0.32332288  0.03696701     0.44200
H61         H  0.27486795  0.27658666  0.42239106     0.37700
H62         H  0.30298428  0.32535998  0.06259907     0.34200
H63         H  0.18171500  0.29769598  0.12614954     0.25900
H64         H  0.26172748  0.39541972  0.09496583     0.31900
H65         H  0.30666406  0.36631811  0.48188115     0.37800
H66         H  0.19037556  0.21343303  0.04768505     0.32300
H67         H  0.22549901  0.19491061  0.45169503     0.31100
H68         H  0.27880783  0.18929177  0.41523844     0.32800
H69         H  0.33162106  0.28297177  0.40741765     0.31800
H70         H  0.15808656  0.27840530  0.01233677     0.35800
H71         H  0.17281739  0.28903705  0.44444527     0.28500
H72         H  0.31798945  0.26504319  0.12476313     0.32700
H73         H  0.36226296  0.31749283  0.47749635     0.35600
H74         H  0.24506436  0.18555564  0.47877162     0.28200
H75         H  0.16715274  0.31696156  0.47452187     0.41100
H76         H  0.21004574  0.37912582  0.12189092     0.31100
H77         H  0.17217532  0.31591503  0.09929909     0.38700
H78         H  0.32905052  0.25952234  0.43009440     0.30600
H79         H  0.28823100  0.37919732  0.07108620     0.30700
H80         H  0.33558054  0.27953529  0.09614524     0.30900
N81         N  0.20025196  0.17301442  0.22604538    -0.03600
C82         C  0.19295385  0.14591911  0.21691278    -0.01000
C83         C  0.20629356  0.13031637  0.23751208    -0.23900
C84         C  0.22170283  0.14815091  0.26075829    -0.24100
C85         C  0.21736499  0.17413226  0.25377296    -0.01100
H86         H  0.20271178  0.10890483  0.23861419     0.12700
H87         H  0.23196224  0.14341016  0.28378577     0.12700
N88         N  0.33275952  0.39179978  0.27221965    -0.03600
C89         C  0.35079482  0.41308976  0.27877907    -0.01000
C90         C  0.34905099  0.42571524  0.31681572    -0.23900
C91         C  0.32974518  0.41212245  0.33490807    -0.24100
C92         C  0.32007115  0.39165821  0.30741561    -0.01100
H93         H  0.36168938  0.44225915  0.33014189     0.12700
H94         H  0.32421565  0.41585025  0.36520873     0.12700
Zr95       Zr  0.03489657  0.05840603  0.16116510     2.17500
O96         O  0.03277911  0.10254025  0.14183751    -0.51400
O97         O  0.06313395  0.03214959  0.10496623    -0.74600
O98         O  0.07842383  0.08255163  0.16760178    -0.81400
O99         O  0.46706652  0.03504836  0.12450410    -0.83200
O100        O  0.09430610  0.07574028  0.22176330    -0.78800
O101        O  0.00549527  0.05940411  0.11113521    -0.90400
O102        O  0.06354549  0.48659157  0.11029102    -0.76400
O103        O  0.06427561  0.02884059  0.18529013    -0.85900
O104        O  0.01536302  0.01371439  0.14840893    -0.85600
O105        O  0.03322708  0.07888534  0.22784185    -0.72300
O106        O  0.48864438  0.06461500  0.19425482    -0.84500
Zr107      Zr  0.49639217  0.00946611  0.27374106     2.26400
Zr108      Zr  0.06173935  0.04817493  0.25187452     2.06300
Zr109      Zr  0.46990799  0.01930439  0.18236782     2.10000
Zr110      Zr  0.04356055  0.48423430  0.17339383     1.78800
O111        O  0.42406367  0.04216311  0.18745915    -0.93300
O112        O  0.09282973  0.47111808  0.17062867    -0.41100
O113        O  0.49961406  0.48898649  0.20667478    -0.77700
O114        O  0.04306575  0.00271990  0.23922981    -0.96400
O115        O  0.01594717  0.05363371  0.28539258    -0.89700
O116        O  0.46720132  0.03892886  0.24909210    -0.92500
C117        C  0.06980533  0.00630926  0.09160032     1.01200
C118        C  0.48139640  0.04956202  0.10484524     1.14100
C119        C  0.09610952  0.08587754  0.19211227     1.04900
O120        O  0.10882957  0.02893687  0.24999568    -0.94700
O121        O  0.06701003  0.02895425  0.30667002    -0.90400
O122        O  0.02858451  0.50516376  0.31858561    -0.83600
C123        C  0.05301556  0.01359631  0.32538214     1.11600
O124        O  0.48150119  0.12922690  0.24767392    -0.96700
Zr125      Zr  0.48710369  0.08347190  0.26128227     1.88900
O126        O  0.46784928  0.03725172  0.32908250    -0.73300
O127        O  0.06944229  0.08931823  0.30024527    -0.52600
O128        O  0.01054857  0.11868153  0.30360321    -0.97300
O129        O  0.43869869  0.09831494  0.26062665    -0.54500
O130        O  0.46535838  0.08213158  0.32400881    -0.73800
C131        C  0.46004079  0.06293363  0.34203225     0.98500
O132        O  0.99613265  0.46861631  0.30003106    -0.62600
O133        O  0.46146159  0.47842074  0.13272841    -0.57500
O134        O  0.45588228  0.48125494  0.25855332    -0.94100
O135        O  0.43999312  0.48735703  0.20435886    -0.92600
O136        O  0.02246543  0.44622743  0.13205341    -0.88500
O137        O  0.05087053  0.43981592  0.19030436    -0.91700
C138        C  0.43876810  0.47635075  0.23301532     1.17400
H139        H  0.01430377  0.00654029  0.12166272     0.33300
H140        H  0.05359875  0.49077081  0.24997313     0.44200
H141        H  0.44821657  0.03964914  0.26081498     0.37700
H142        H  0.04102032  0.09709007  0.23156389     0.34200
H143        H  0.09598323  0.45460628  0.14931779     0.25900
H144        H  0.05913348  0.08627825  0.32382136     0.31900
H145        H  0.51257997  0.11225324  0.32547800     0.37800
H146        H  0.03844949  0.43461138  0.11707587     0.32300
H147        H  0.44360121  0.48330748  0.12409552     0.31100
H148        H  0.41463133  0.04033328  0.21216840     0.32800
H149        H  0.42736485  0.08679682  0.27500525     0.31800
H150        H  0.03747801  0.44062813  0.21304856     0.35800
H151        H  0.47523160  0.47099760  0.31646415     0.28500
H152        H  0.04845200  0.10136900  0.12164742     0.32700
H153        H  0.48371560  0.12572893  0.21968773     0.35600
H154        H  0.47561425  0.47818637  0.11095153     0.28200
H155        H  0.99466614  0.45250713  0.27865818     0.41100
H156        H  0.10793153  0.00910063  0.23722561     0.31100
H157        H  0.10295504  0.48595809  0.16124063     0.38700
H158        H  0.43478017  0.09149717  0.23407725     0.30600
H159        H  0.08938408  0.08758888  0.30410184     0.30700
H160        H  0.03805489  0.11675063  0.16351301     0.30900
C161        C  0.36806300  0.44182741  0.23492231    -0.20400
C162        C  0.37368537  0.42060812  0.25326983    -0.07000
C163        C  0.40153692  0.41572802  0.26028073     0.13900
C164        C  0.42240636  0.43347782  0.25176163    -0.20500
C165        C  0.41636710  0.45633084  0.23662405    -0.07000
C166        C  0.38896813  0.45990521  0.22665778     0.13900
C167        C  0.38084710  0.48401763  0.21035380    -0.23800
H168        H  0.34662399  0.44606213  0.23064423     0.15200
H169        H  0.44337782  0.43009882  0.25863228     0.15200
C170        C  0.40943240  0.39333968  0.27992349    -0.23800
H171        H  0.35823244  0.48455117  0.20680571     0.05400
H172        H  0.39250100  0.48225211  0.18199858     0.08600
H173        H  0.38419579  0.00385849  0.23902955     0.08600
H174        H  0.39163300  0.38050007  0.28597943     0.08600
H175        H  0.41740219  0.40300375  0.30717269     0.08600
H176        H  0.42605417  0.37928176  0.26171480     0.05400
C177        C  0.17020566  0.10749101  0.17651991    -0.20400
C178        C  0.16799288  0.13503440  0.19822720    -0.07000
C179        C  0.14097629  0.14756833  0.21069469     0.13900
C180        C  0.11736267  0.13153009  0.20456252    -0.20500
C181        C  0.12008336  0.10325054  0.18707270    -0.07000
C182        C  0.14656220  0.09132826  0.17133820     0.13900
C183        C  0.14990876  0.06113399  0.15113611    -0.23800
H184        H  0.19076398  0.09774535  0.16681869     0.15200
H185        H  0.09678689  0.14049562  0.21626401     0.15200
C186        C  0.13669178  0.17699146  0.23322836    -0.23800
H187        H  0.17205676  0.05497012  0.14056963     0.05400
H188        H  0.13750380  0.05730768  0.12655305     0.08600
H189        H  0.14242647  0.04782019  0.17068698     0.08600
H190        H  0.14533427  0.19115445  0.21567884     0.08600
H191        H  0.14690489  0.17945689  0.25961548     0.08600
H192        H  0.11422609  0.18299875  0.24148794     0.05400
C193        C  0.22082287  0.17805387  0.16358112    -0.20400
C194        C  0.20513378  0.18995421  0.19839279    -0.07000
C195        C  0.19805950  0.21886047  0.20675254     0.13900
C196        C  0.20711626  0.23485028  0.18067931    -0.20500
C197        C  0.22322609  0.22293665  0.14651939    -0.07000
C198        C  0.22980944  0.19411438  0.13757548     0.13900
C199        C  0.24587870  0.18021128  0.10028564    -0.23800
H200        H  0.22665794  0.15608697  0.15713785     0.15200
H201        H  0.20135770  0.25685752  0.18696097     0.15200
C202        C  0.18057783  0.23363556  0.24226964    -0.23800
H203        H  0.24904913  0.15749253  0.09763723     0.05400
H204        H  0.26671294  0.18931811  0.09765317     0.08600
H205        H  0.23425026  0.18328667  0.07664811     0.08600
H206        H  0.19310818  0.24940540  0.25933619     0.08600
H207        H  0.17259979  0.21932558  0.25971349     0.08600
H208        H  0.16216746  0.24422967  0.23478462     0.05400
C209        C  0.19685111  0.20452628  0.31340607    -0.20400
C210        C  0.21931205  0.19869567  0.28475243    -0.07000
C211        C  0.24461266  0.21208523  0.29041228     0.13900
C212        C  0.24731182  0.23011444  0.32551089    -0.20500
C213        C  0.22512505  0.23498568  0.35465531    -0.07000
C214        C  0.19935138  0.22275497  0.34816366     0.13900
C215        C  0.17509077  0.22747908  0.37868509    -0.23800
H216        H  0.17774022  0.19348916  0.30928134     0.15200
H217        H  0.26716127  0.23941330  0.33089251     0.15200
C218        C  0.26892145  0.20643040  0.26000976    -0.23800
H219        H  0.15661874  0.21589907  0.36895646     0.05400
H220        H  0.16895354  0.24994467  0.38696815     0.08600
H221        H  0.18105555  0.22044438  0.40379541     0.08600
H222        H  0.26277344  0.21222937  0.23413733     0.08600
H223        H  0.27528324  0.18400449  0.25315660     0.08600
H224        H  0.28722962  0.21858770  0.26902394     0.05400
C225        C  0.32525700  0.34585250  0.17507738    -0.20400
C226        C  0.29652273  0.34949580  0.17256073    -0.07000
C227        C  0.28028155  0.36759890  0.20306359     0.13900
C228        C  0.29315354  0.38180127  0.23444591    -0.20500
C229        C  0.32192217  0.37848375  0.23697692    -0.07000
C230        C  0.33818170  0.36011101  0.20664112     0.13900
C231        C  0.36889239  0.35467455  0.20739614    -0.23800
H232        H  0.33780314  0.33199195  0.15184502     0.15200
H233        H  0.28051663  0.39545156  0.25777704     0.15200
C234        C  0.24907538  0.37102839  0.20369966    -0.23800
H235        H  0.37741217  0.33744263  0.18357026     0.05400
H236        H  0.37286556  0.34880173  0.23401515     0.08600
H237        H  0.38049752  0.37332711  0.20442677     0.08600
H238        H  0.23956730  0.35037312  0.20000707     0.08600
H239        H  0.24397846  0.38110489  0.18077250     0.08600
H240        H  0.23943294  0.38423216  0.23093523     0.05400
C241        C  0.27723291  0.38047770  0.34215942    -0.20400
C242        C  0.30189089  0.37044672  0.31869136    -0.07000
C243        C  0.31360691  0.34426569  0.31964881     0.13900
C244        C  0.30264980  0.33060691  0.34740266    -0.20500
C245        C  0.28035561  0.34256021  0.37419889    -0.07000
C246        C  0.26644876  0.36705527  0.37035258     0.13900
C247        C  0.24207774  0.38061230  0.39801055    -0.23800
H248        H  0.26841917  0.40068618  0.34147669     0.15200
H249        H  0.31268357  0.31134882  0.34977667     0.15200
C250        C  0.33908771  0.33178035  0.29373776    -0.23800
H251        H  0.23475290  0.40041514  0.39183811     0.05400
H252        H  0.24826349  0.38534070  0.42720991     0.08600
H253        H  0.22429795  0.36652831  0.39646706     0.08600
H254        H  0.35667847  0.34595544  0.29811837     0.08600
H255        H  0.33423768  0.32809674  0.26398847     0.08600
H256        H  0.34584469  0.31149101  0.29898578     0.05400
C257        C  0.11137941  0.00666177  0.04575955    -0.20400
C258        C  0.08419021  0.99807960  0.05289661    -0.07000
C259        C  0.07062385  0.47906433  0.02480331     0.13900
C260        C  0.08568022  0.47018924  0.98895393    -0.20500
C261        C  0.11284092  0.47877383  0.98157611    -0.07000
C262        C  0.12662758  0.99755380  0.01005664     0.13900
C263        C  0.15457233  0.00744426  0.50120437    -0.23800
H264        H  0.12088674  0.02029787  0.06826517     0.15200
H265        H  0.07668121  0.45559961  0.96715110     0.15200
C266        C  0.04158939  0.46899130  0.03172598    -0.23800
H267        H  0.16860870  0.00126772  0.52052374     0.05400
H268        H  0.15323463  0.03049060  0.50652253     0.08600
H269        H  0.16394011  0.99954633  0.47159949     0.08600
H270        H  0.02651709  0.48706428  0.04116783     0.08600
H271        H  0.04087295  0.45668118  0.05379625     0.08600
H272        H  0.03487529  0.45553072  0.00570574     0.05400
C273        C  0.10294030  0.00760118  0.39840100    -0.20400
C274        C  0.10061614  0.48074351  0.39977059    -0.07000
C275        C  0.08045090  0.46480027  0.37996546     0.13900
C276        C  0.06340329  0.47712885  0.35867330    -0.20500
C277        C  0.06677695  0.00407025  0.35535864    -0.07000
C278        C  0.08635965  0.02013890  0.37665290     0.13900
C279        C  0.09041331  0.05028486  0.37612365    -0.23800
H280        H  0.11911500  0.01925961  0.41277432     0.15200
H281        H  0.04898240  0.46440752  0.34202221     0.15200
C282        C  0.07790283  0.43431281  0.37951979    -0.23800
H283        H  0.10439984  0.06012228  0.39727700     0.05400
H284        H  0.06998222  0.06198731  0.38297853     0.08600
H285        H  0.10018717  0.05222500  0.34798424     0.08600
H286        H  0.07309294  0.43144014  0.40875423     0.08600
H287        H  0.09767525  0.42265186  0.36666894     0.08600
H288        H  0.06095644  0.42506682  0.36284248     0.05400
C289        C  0.18935110  0.44125686  0.48345660    -0.20400
C290        C  0.16276474  0.43534550  0.47170681    -0.07000
C291        C  0.14922586  0.41187624  0.47991755     0.13900
C292        C  0.16315731  0.39414001  0.49768947    -0.20500
C293        C  0.19059425  0.39869875  0.50655174    -0.07000
C294        C  0.20342550  0.42320276  0.50101189     0.13900
C295        C  0.23258962  0.42923943  0.51104756    -0.23800
H296        H  0.19992556  0.45894052  0.47640576     0.15200
H297        H  0.15346980  0.37519415  0.50179335     0.15200
C298        C  0.12118338  0.40387000  0.46687202    -0.23800
H299        H  0.23971040  0.44898980  0.50414382     0.05400
H300        H  0.24738994  0.41218366  0.49517500     0.08600
H301        H  0.22914123  0.43038253  0.04730915     0.08600
H302        H  0.12181343  0.40182089  0.43583576     0.08600
H303        H  0.10509283  0.41978251  0.48180237     0.08600
H304        H  0.11475620  0.38372501  0.47314490     0.05400
C305        C  0.44757930  0.08813842  0.04124523    -0.20400
C306        C  0.42976052  0.06783387  0.02481908    -0.07000
C307        C  0.43383822  0.04013354  0.02785504     0.13900
C308        C  0.45324486  0.03410378  0.05137931    -0.20500
C309        C  0.46861019  0.05520227  0.07186515    -0.07000
C310        C  0.46708563  0.08219299  0.06474170     0.13900
C311        C  0.48404080  0.10541478  0.08420030    -0.23800
H312        H  0.44417723  0.10942559  0.03907397     0.15200
H313        H  0.45506430  0.01317139  0.05580446     0.15200
C314        C  0.41693665  0.01723110  0.00746552    -0.23800
H315        H  0.47953035  0.12526140  0.07598878     0.05400
H316        H  0.00868244  0.09854509  0.07322502     0.08600
H317        H  0.47921278  0.10894275  0.11538249     0.08600
H318        H  0.42027737  0.01607449  0.97654835     0.08600
H319        H  0.39439109  0.02123252  0.01730854     0.08600
H320        H  0.42314040  0.99667902  0.01239307     0.05400
C321        C  0.44833928  0.09744420  0.40373876    -0.20400
C322        C  0.44404799  0.07122903  0.38046629    -0.07000
C323        C  0.42427383  0.05390165  0.39423306     0.13900
C324        C  0.40978697  0.06308652  0.43051577    -0.20500
C325        C  0.41454613  0.08892860  0.45397576    -0.07000
C326        C  0.43401763  0.10636723  0.44036270     0.13900
C327        C  0.44004894  0.13411265  0.46445818    -0.23800
H328        H  0.46339970  0.11085918  0.39347905     0.15200
H329        H  0.39469229  0.04985695  0.44110648     0.15200
C330        C  0.41767266  0.02598948  0.37072575    -0.23800
H331        H  0.45620305  0.14489984  0.44970971     0.05400
H332        H  0.44781511  0.13136439  0.49098638     0.08600
H333        H  0.42085767  0.14768058  0.47126192     0.08600
H334        H  0.43618809  0.01148334  0.36581041     0.08600
H335        H  0.41126059  0.02844494  0.34319291     0.08600
H336        H  0.40036208  0.01628296  0.38507878     0.05400
C337        C  0.37246248  0.15927715  0.52136426    -0.20400
C338        C  0.36602080  0.13547343  0.49495528    -0.07000
C339        C  0.34372796  0.13592995  0.97329353     0.13900
C340        C  0.32797626  0.16085834  0.97848256    -0.20500
C341        C  0.33218650  0.18444113  0.00733688    -0.07000
C342        C  0.35467606  0.18316385  0.02927267     0.13900
C343        C  0.36162212  0.20743947  0.05956353    -0.23800
H344        H  0.38827864  0.15738543  0.53989603     0.15200
H345        H  0.31132586  0.16126573  0.96074332     0.15200
C346        C  0.33708710  0.11080662  0.94403185    -0.23800
H347        H  0.38351543  0.20409487  0.56941952     0.05400
H348        H  0.34420069  0.21204547  0.08267256     0.08600
H349        H  0.36830223  0.22715024  0.54462472     0.08600
H350        H  0.33035280  0.09381616  0.95799669     0.08600
H351        H  0.35700645  0.10460704  0.42218892     0.08600
H352        H  0.32009178  0.11550831  0.92770962     0.05400
N353        N  0.40054652  0.09545572  0.99197223    -0.03600
C354        C  0.37434839  0.10713808  0.00209267    -0.01000
C355        C  0.36035851  0.09891248  0.53090213    -0.23900
C356        C  0.37797927  0.08022803  0.54028825    -0.24100
C357        C  0.40224833  0.07870412  0.51615330    -0.01100
H358        H  0.34060062  0.10717703  0.54659090     0.12700
H359        H  0.37463207  0.07108564  0.56467873     0.12700
N360        N  0.12939993  0.46578395  0.94680017    -0.03600
C361        C  0.15296458  0.44958039  0.94346419    -0.01000
C362        C  0.16441795  0.44239043  0.90611217    -0.23900
C363        C  0.14708906  0.45419601  0.88572385    -0.24100
C364        C  0.12556749  0.46811544  0.91128065    -0.01100
H365        H  0.18238840  0.42855021  0.89463127     0.12700
H366        H  0.14929348  0.45193012  0.85533202     0.12700
Zr367      Zr  0.28352660  0.27284143  0.56873145     2.17500
O368        O  0.32589910  0.26434578  0.59653786    -0.51400
O369        O  0.25827948  0.24776887  0.61238659    -0.74600
O370        O  0.29398698  0.30999942  0.62293010    -0.81400
O371        O  0.29734523  0.20882969  0.98576021    -0.83200
O372        O  0.26966584  0.34980746  0.62301875    -0.78800
O373        O  0.31280888  0.22999576  0.54180508    -0.90400
O374        O  0.21198490  0.24872984  0.60503337    -0.76400
O375        O  0.24044810  0.29953878  0.58651606    -0.85900
O376        O  0.24885932  0.24535845  0.53725529    -0.85600
O377        O  0.29072384  0.31556608  0.54752761    -0.72300
O378        O  0.29780556  0.26608990  0.00323037    -0.84500
Zr379      Zr  0.22687048  0.30594537  0.96606217     2.26400
Zr380      Zr  0.24698321  0.34176506  0.56464942     2.06300
Zr381      Zr  0.26362907  0.23901914  0.96982288     2.10000
Zr382      Zr  0.20601515  0.27209018  0.55475016     1.78800
O383        O  0.29703500  0.21477537  0.91764828    -0.93300
O384        O  0.17600997  0.29732365  0.61006292    -0.41100
O385        O  0.21914193  0.26302121  0.98490551    -0.77700
O386        O  0.21153811  0.31455107  0.53400017    -0.96400
O387        O  0.26006074  0.33409720  0.99924805    -0.89700
O388        O  0.27059415  0.28109999  0.94967125    -0.92500
C389        C  0.23279665  0.24168765  0.62048299     1.01200
C390        C  0.31480412  0.21093570  0.51085667     1.14100
C391        C  0.28647449  0.33568096  0.63751657     1.04900
O392        O  0.21073275  0.36304467  0.61484632    -0.94700
O393        O  0.21995401  0.37566928  0.54076661    -0.90400
O394        O  0.20705821  0.35272828  0.98308446    -0.83600
C395        C  0.20548935  0.37361730  0.01141830     1.11600
O396        O  0.35095283  0.31136526  0.00089637    -0.96700
Zr397      Zr  0.30349387  0.30883376  0.98296580     1.88900
O398        O  0.25073151  0.32640491  0.91804378    -0.73300
O399        O  0.27407571  0.38340096  0.56866443    -0.52600
O400        O  0.31974209  0.35617954  0.99663476    -0.97300
O401        O  0.33733962  0.27974999  0.93563260    -0.54500
O402        O  0.29688489  0.32570391  0.92627258    -0.73800
C403        C  0.27630767  0.33076795  0.90858885     0.98500
O404        O  0.17958640  0.30775117  0.94804931    -0.62600
O405        O  0.23593441  0.19795461  0.96773376    -0.57500
O406        O  0.22264984  0.27324301  0.90633849    -0.94100
O407        O  0.24699882  0.23382420  0.90842773    -0.92600
O408        O  0.18392239  0.22761317  0.53793305    -0.92900
O409        O  0.15819300  0.27884926  0.54138430    -0.91700
C410        C  0.23258429  0.24846215  0.89176963     1.17400
H411        H  0.24769009  0.22741874  0.54365568     0.33300
H412        H  0.19390615  0.32494980  0.53966078     0.44200
H413        H  0.27641518  0.27723417  0.92282746     0.37700
H414        H  0.30531254  0.32574378  0.56011468     0.34200
H415        H  0.16460454  0.28291671  0.61862827     0.25900
H416        H  0.26614720  0.39617300  0.59253772     0.31900
H417        H  0.30385814  0.36794660  0.99306110     0.37800
H418        H  0.18051175  0.22558293  0.51113820     0.32300
H419        H  0.21836470  0.20263671  0.95820170     0.31100
H420        H  0.28926881  0.19629474  0.90878021     0.32800
H421        H  0.33167239  0.28151350  0.91089107     0.31800
H422        H  0.15970684  0.27784418  0.51381281     0.35800
H423        H  0.17341534  0.28840273  0.94469292     0.28500
H424        H  0.32028267  0.26576205  0.62382918     0.32700
H425        H  0.36200587  0.31910893  0.98146383     0.35600
H426        H  0.24559773  0.18364457  0.94667250     0.28200
H427        H  0.16803062  0.31789116  0.97121442     0.41100
H428        H  0.19294926  0.35914963  0.60361267     0.31100
H429        H  0.18869414  0.30302086  0.62990251     0.38700
H430        H  0.33303258  0.26044780  0.93707063     0.30600
H431        H  0.29292483  0.37788137  0.57366010     0.30700
H432        H  0.33779699  0.28036180  0.59527025     0.30900
N433        N  0.20133025  0.17322998  0.72545977    -0.03600
C434        C  0.19413808  0.14616253  0.71490613    -0.01000
C435        C  0.20712873  0.12994340  0.73505678    -0.23900
C436        C  0.22212620  0.14733014  0.75949688    -0.24100
C437        C  0.21801920  0.17360341  0.75343665    -0.01100
H438        H  0.20349617  0.10836078  0.73506775     0.12700
H439        H  0.23216216  0.14199991  0.78233750     0.12700
N440        N  0.33567576  0.39141874  0.77263967    -0.03600
C441        C  0.35366195  0.41276069  0.77904581    -0.01000
C442        C  0.35232226  0.42523729  0.81708123    -0.23900
C443        C  0.33316241  0.41160857  0.83535938    -0.24100
C444        C  0.32322801  0.39121812  0.80797992    -0.01100
H445        H  0.36488407  0.44192743  0.83020356     0.12700
H446        H  0.32773574  0.41540772  0.86568623     0.12700
Zr447      Zr  0.03584580  0.05868120  0.66102861     2.17500
O448        O  0.03347765  0.10312683  0.64257024    -0.51400
O449        O  0.06345525  0.03236869  0.60461281    -0.74600
O450        O  0.08003399  0.08188024  0.66605993    -0.81400
O451        O  0.46678469  0.03644790  0.62504600    -0.83200
O452        O  0.09561668  0.07607723  0.72087613    -0.78800
O453        O  0.00611104  0.05942506  0.61104677    -0.90400
O454        O  0.06764714  0.48805661  0.61276099    -0.76400
O455        O  0.06523183  0.02938031  0.68566102    -0.85900
O456        O  0.01669840  0.01380841  0.64858991    -0.85600
O457        O  0.03410218  0.07950835  0.72767341    -0.72300
O458        O  0.48861526  0.06496180  0.69374417    -0.84500
Zr459      Zr  0.49571424  0.00952355  0.77297306     2.26400
Zr460      Zr  0.06279460  0.04918308  0.75209121     2.06300
Zr461      Zr  0.46988977  0.01960792  0.68180947     2.10000
Zr462      Zr  0.04566055  0.48505403  0.67481857     1.78800
O463        O  0.42329354  0.04140243  0.69043610    -0.93300
O464        O  0.09444429  0.47354350  0.67889094    -0.41100
O465        O  0.49923973  0.49019667  0.70611413    -0.77700
O466        O  0.04431341  0.00358246  0.73989009    -0.96400
O467        O  0.01680095  0.05450996  0.78494931    -0.89700
O468        O  0.46696988  0.03930806  0.74838281    -0.92500
C469        C  0.07061997  0.00659440  0.59196184     1.01200
C470        C  0.48135757  0.05051696  0.60503933     1.14100
C471        C  0.09768107  0.08557408  0.69065533     1.04900
O472        O  0.11030003  0.03124206  0.75096785    -0.94700
O473        O  0.06828844  0.03051254  0.80740483    -0.90400
O474        O  0.02814961  0.50488582  0.81903139    -0.83600
C475        C  0.05410999  0.01530702  0.82620638     1.11600
O476        O  0.48431467  0.12966788  0.74615329    -0.96700
Zr477      Zr  0.48697367  0.08387226  0.76071179     1.88900
O478        O  0.46736762  0.03767129  0.82850037    -0.73300
O479        O  0.06916365  0.09066092  0.80064628    -0.52600
O480        O  0.00694843  0.11990273  0.80639789    -0.97300
O481        O  0.43926991  0.09932903  0.75682894    -0.54500
O482        O  0.46384363  0.08237789  0.82272550    -0.73800
C483        C  0.45898038  0.06326681  0.84107407     0.98500
O484        O  0.99483803  0.46846742  0.79982387    -0.62600
O485        O  0.45707712  0.48221935  0.63412846    -0.57500
O486        O  0.45750085  0.48154183  0.75754317    -0.94100
O487        O  0.44048189  0.48923573  0.70474887    -0.92600
O488        O  0.02808778  0.44613161  0.63086568    -0.88500
O489        O  0.05176180  0.43992941  0.69031541    -0.91700
C490        C  0.43993417  0.47734857  0.73255848     1.17400
H491        H  0.01574833  0.00653590  0.62184154     0.33300
H492        H  0.05399566  0.49190327  0.75210125     0.44200
H493        H  0.44791977  0.04006892  0.75987148     0.37700
H494        H  0.04180606  0.09775719  0.73127866     0.34200
H495        H  0.10026593  0.45944721  0.65529808     0.25900
H496        H  0.06086899  0.08646247  0.82465483     0.31900
H497        H  0.51126359  0.11174317  0.82655831     0.37800
H498        H  0.04498673  0.43623743  0.61574834     0.32300
H499        H  0.44265019  0.49010829  0.62156734     0.31100
H500        H  0.41510471  0.03333472  0.66675505     0.32800
H501        H  0.42715683  0.08671284  0.76826167     0.31800
H502        H  0.05152603  0.44398293  0.71819723     0.35800
H503        H  0.47794658  0.46949846  0.81348841     0.28500
H504        H  0.04842126  0.10170863  0.62136893     0.32700
H505        H  0.47247583  0.14156210  0.76774358     0.35600
H506        H  0.47337279  0.47760896  0.61466286     0.28200
H507        H  0.99472927  0.45232949  0.77810050     0.41100
H508        H  0.11071712  0.01219488  0.73488633     0.31100
H509        H  0.10461530  0.49027202  0.67565977     0.38700
H510        H  0.43691576  0.09420217  0.72950424     0.30600
H511        H  0.08951046  0.09070803  0.80260152     0.30700
H512        H  0.03986153  0.11700504  0.66377619     0.30900
C513        C  0.36918576  0.44339651  0.73703609    -0.20400
C514        C  0.37563724  0.42103395  0.75294821    -0.07000
C515        C  0.40388855  0.41550933  0.75755191     0.13900
C516        C  0.42450028  0.43334290  0.74852683    -0.20500
C517        C  0.41774328  0.45715507  0.73587723    -0.07000
C518        C  0.38981624  0.46168896  0.72862260     0.13900
C519        C  0.38102460  0.48698423  0.71523738    -0.23800
H520        H  0.34745966  0.44825403  0.73493607     0.15200
H521        H  0.44587636  0.42936533  0.75337177     0.15200
C522        C  0.41263655  0.39231607  0.77525624    -0.23800
H523        H  0.35813873  0.48815964  0.71373807     0.05400
H524        H  0.39146650  0.48625616  0.68643319     0.08600
H525        H  0.38413943  0.00423302  0.72999206     0.08600
H526        H  0.39498533  0.37959672  0.78227319     0.08600
H527        H  0.42194770  0.40118622  0.80178332     0.08600
H528        H  0.42845114  0.37832117  0.75532702     0.05400
C529        C  0.17124355  0.10882032  0.67262734    -0.20400
C530        C  0.16903895  0.13579904  0.69610041    -0.07000
C531        C  0.14202267  0.14766880  0.71034186     0.13900
C532        C  0.11860422  0.13127301  0.70482456    -0.20500
C533        C  0.12142247  0.10336195  0.68559674    -0.07000
C534        C  0.14772912  0.09236786  0.66748427     0.13900
C535        C  0.15115943  0.06286188  0.64465337    -0.23800
H536        H  0.19180525  0.09962155  0.66139571     0.15200
H537        H  0.09815385  0.13965750  0.71807460     0.15200
C538        C  0.13765063  0.17675873  0.73394823    -0.23800
H539        H  0.17312290  0.05750758  0.63226206     0.05400
H540        H  0.13778662  0.06007010  0.62111670     0.08600
H541        H  0.14490855  0.04826978  0.66292415     0.08600
H542        H  0.14563767  0.19144600  0.71679410     0.08600
H543        H  0.14846110  0.17884080  0.75978976     0.08600
H544        H  0.11520270  0.18236977  0.74314207     0.05400
C545        C  0.22493475  0.17956190  0.66538322    -0.20400
C546        C  0.20725553  0.19069429  0.69874144    -0.07000
C547        C  0.19947180  0.21944905  0.70712377     0.13900
C548        C  0.20882431  0.23576037  0.68157890    -0.20500
C549        C  0.22645683  0.22447345  0.64845697    -0.07000
C550        C  0.23466358  0.19603208  0.64029314     0.13900
C551        C  0.25314810  0.18285984  0.60467073    -0.23800
H552        H  0.23168512  0.15784058  0.65942088     0.15200
H553        H  0.20217671  0.25753700  0.68748518     0.15200
C554        C  0.18128880  0.23378717  0.74229056    -0.23800
H555        H  0.25745381  0.16036535  0.60259273     0.05400
H556        H  0.27343933  0.19320248  0.60430080     0.08600
H557        H  0.24284902  0.18499839  0.57950881     0.08600
H558        H  0.19325875  0.24988885  0.75976405     0.08600
H559        H  0.17356919  0.21929156  0.75961354     0.08600
H560        H  0.16277843  0.24395286  0.73438638     0.05400
C561        C  0.19818901  0.20414677  0.81323274    -0.20400
C562        C  0.22050839  0.19796011  0.78442987    -0.07000
C563        C  0.24593834  0.21123392  0.78948486     0.13900
C564        C  0.24885487  0.22963684  0.82421117    -0.20500
C565        C  0.22674754  0.23493732  0.85347083    -0.07000
C566        C  0.20091901  0.22270784  0.84759782     0.13900
C567        C  0.17685193  0.22782671  0.87845313    -0.23800
H568        H  0.17897695  0.19322768  0.80950843     0.15200
H569        H  0.26878412  0.23887122  0.82924206     0.15200
C570        C  0.27012909  0.20507566  0.75889376    -0.23800
H571        H  0.15830511  0.21614473  0.86927934     0.05400
H572        H  0.17074599  0.25030632  0.88626133     0.08600
H573        H  0.18301613  0.22119199  0.90375580     0.08600
H574        H  0.26399305  0.21070859  0.73291142     0.08600
H575        H  0.27622821  0.18259262  0.75235511     0.08600
H576        H  0.28861907  0.21705966  0.76756369     0.05400
C577        C  0.32733734  0.34549002  0.67570837    -0.20400
C578        C  0.29883492  0.35027928  0.67265868    -0.07000
C579        C  0.28309810  0.36930051  0.70283831     0.13900
C580        C  0.29616264  0.38289000  0.73445250    -0.20500
C581        C  0.32465407  0.37834011  0.73742336    -0.07000
C582        C  0.34049322  0.35937587  0.70729502     0.13900
C583        C  0.37106330  0.35317539  0.70808418    -0.23800
H584        H  0.33959121  0.33107685  0.65277296     0.15200
H585        H  0.28391461  0.39714251  0.75756448     0.15200
C586        C  0.25218153  0.37454502  0.70294004    -0.23800
H587        H  0.37943941  0.33625510  0.68374984     0.05400
H588        H  0.37471445  0.34651499  0.73426305     0.08600
H589        H  0.38305609  0.37178169  0.70611194     0.08600
H590        H  0.24138486  0.35456974  0.69958121     0.08600
H591        H  0.24818975  0.38470022  0.67964086     0.08600
H592        H  0.24292824  0.38848502  0.72984823     0.05400
C593        C  0.28026646  0.38068516  0.84328753    -0.20400
C594        C  0.30471893  0.37029208  0.81951276    -0.07000
C595        C  0.31599823  0.34389026  0.82031913     0.13900
C596        C  0.30496387  0.33039386  0.84825416    -0.20500
C597        C  0.28278956  0.34258996  0.87508310    -0.07000
C598        C  0.26916289  0.36721237  0.87127146     0.13900
C599        C  0.24458695  0.38067192  0.89865059    -0.23800
H600        H  0.27174352  0.40104698  0.84279856     0.15200
H601        H  0.31470520  0.31097821  0.85055611     0.15200
C602        C  0.34104583  0.33092101  0.79390471    -0.23800
H603        H  0.23745542  0.40057841  0.89260855     0.05400
H604        H  0.25040688  0.38515102  0.92805148     0.08600
H605        H  0.22677267  0.36661994  0.89652325     0.08600
H606        H  0.35896409  0.34472395  0.79788190     0.08600
H607        H  0.33580306  0.32737863  0.76433724     0.08600
H608        H  0.34748189  0.31048557  0.79899168     0.05400
C609        C  0.11118680  0.00672461  0.54455822    -0.20400
C610        C  0.08426661  0.99798246  0.55303238    -0.07000
C611        C  0.07231343  0.48052701  0.52655094     0.13900
C612        C  0.08662154  0.47156395  0.49019587    -0.20500
C613        C  0.11402050  0.47925047  0.48202482    -0.07000
C614        C  0.12591218  0.99683244  0.50868346     0.13900
C615        C  0.15510151  0.00887136  0.00371611    -0.23800
H616        H  0.12102117  0.02080200  0.56628211     0.15200
H617        H  0.07696121  0.45732961  0.46863787     0.15200
C618        C  0.04328184  0.47080745  0.53457817    -0.23800
H619        H  0.16913856  0.00223149  0.02267792     0.05400
H620        H  0.15333729  0.03194584  0.01032637     0.08600
H621        H  0.16470639  0.00200653  0.97405456     0.08600
H622        H  0.02845040  0.48903781  0.54449144     0.08600
H623        H  0.04295954  0.45856687  0.55669869     0.08600
H624        H  0.03597884  0.45737228  0.50896468     0.05400
C625        C  0.10276041  0.00990440  0.90089111    -0.20400
C626        C  0.10139732  0.48168523  0.89953475    -0.07000
C627        C  0.08113486  0.46559345  0.88017240     0.13900
C628        C  0.06319677  0.47801566  0.86004889    -0.20500
C629        C  0.06768253  0.00570468  0.85624147    -0.07000
C630        C  0.08572886  0.02237945  0.87955629     0.13900
C631        C  0.08739685  0.05317625  0.88190192    -0.23800
H632        H  0.11791944  0.02212106  0.91674690     0.15200
H633        H  0.04876380  0.46518303  0.84357630     0.15200
C634        C  0.07946943  0.43487372  0.87871477    -0.23800
H635        H  0.10070749  0.06315093  0.90388293     0.05400
H636        H  0.06618630  0.06325311  0.88941109     0.08600
H637        H  0.09664688  0.05710515  0.85454618     0.08600
H638        H  0.07539430  0.43124996  0.90763638     0.08600
H639        H  0.09935686  0.42383205  0.86496524     0.08600
H640        H  0.06239392  0.42551727  0.86238444     0.05400
C641        C  0.18745434  0.44173781  0.98678076    -0.20400
C642        C  0.16183043  0.43522943  0.97225140    -0.07000
C643        C  0.14873459  0.41080339  0.97769283     0.13900
C644        C  0.16227088  0.39275440  0.99541242    -0.20500
C645        C  0.18898926  0.39789877  0.00676781    -0.07000
C646        C  0.20124206  0.42327354  0.00404371     0.13900
C647        C  0.22965744  0.42983951  0.01662789    -0.23800
H648        H  0.19768071  0.46024023  0.98200280     0.15200
H649        H  0.15300192  0.37319153  0.99745864     0.15200
C650        C  0.12173538  0.40222948  0.96173419    -0.23800
H651        H  0.23637377  0.45035197  0.01199806     0.05400
H652        H  0.24534464  0.41370084  0.00052195     0.08600
H653        H  0.23314741  0.43109482  0.54188459     0.08600
H654        H  0.12385487  0.40091906  0.93076304     0.08600
H655        H  0.10478918  0.41746713  0.97583606     0.08600
H656        H  0.11550419  0.38159500  0.96643175     0.05400
C657        C  0.44679390  0.08908343  0.54237931    -0.20400
C658        C  0.42876373  0.06883031  0.52639669    -0.07000
C659        C  0.43262098  0.04119677  0.52977186     0.13900
C660        C  0.45260487  0.03507964  0.55242286    -0.20500
C661        C  0.46840854  0.05610786  0.57223325    -0.07000
C662        C  0.46669236  0.08309658  0.56526610     0.13900
C663        C  0.48380724  0.10628446  0.58443717    -0.23800
H664        H  0.44321810  0.11039973  0.54054111     0.15200
H665        H  0.45439721  0.01419268  0.55702317     0.15200
C666        C  0.41472236  0.01852928  0.51106534    -0.23800
H667        H  0.47916580  0.12614889  0.57634424     0.05400
H668        H  0.00798228  0.09888741  0.57328979     0.08600
H669        H  0.47925839  0.10977089  0.61565042     0.08600
H670        H  0.41696932  0.01701262  0.48004692     0.08600
H671        H  0.39247448  0.02309723  0.52236718     0.08600
H672        H  0.42089068  0.99798302  0.51604670     0.05400
C673        C  0.44675305  0.09806230  0.90254910    -0.20400
C674        C  0.44293012  0.07159736  0.87953557    -0.07000
C675        C  0.42357095  0.05404035  0.89361040     0.13900
C676        C  0.40939050  0.06303443  0.93011038    -0.20500
C677        C  0.41395581  0.08897291  0.95348366    -0.07000
C678        C  0.43256379  0.10688903  0.93930781     0.13900
C679        C  0.43766805  0.13509654  0.96291894    -0.23800
H680        H  0.46130134  0.11177787  0.89196033     0.15200
H681        H  0.39474621  0.04953469  0.94098645     0.15200
C682        C  0.41707360  0.02606614  0.87020428    -0.23800
H683        H  0.45343098  0.14617741  0.94798201     0.05400
H684        H  0.44540764  0.13302626  0.98979873     0.08600
H685        H  0.41802786  0.14801882  0.96919654     0.08600
H686        H  0.43570386  0.01169849  0.86509711     0.08600
H687        H  0.41043513  0.02846644  0.84276585     0.08600
H688        H  0.39993558  0.01624671  0.88471941     0.05400
C689        C  0.37070545  0.15816911  0.02342602    -0.20400
C690        C  0.36480226  0.13434436  0.99662674    -0.07000
C691        C  0.34525977  0.13742984  0.47128278     0.13900
C692        C  0.33015993  0.16270295  0.47603080    -0.20500
C693        C  0.33463448  0.18619101  0.50488249    -0.07000
C694        C  0.35701254  0.18456213  0.52687311     0.13900
C695        C  0.36438234  0.20875227  0.55696180    -0.23800
H696        H  0.38670180  0.15653334  0.04179497     0.15200
H697        H  0.31362720  0.16340916  0.45820101     0.15200
C698        C  0.33817442  0.11237643  0.44223924    -0.23800
H699        H  0.38067967  0.20298765  0.07231844     0.05400
H700        H  0.34715299  0.21352828  0.58031149     0.08600
H701        H  0.36547341  0.22589312  0.04732300     0.08600
H702        H  0.33091532  0.09565058  0.45640609     0.08600
H703        H  0.35597496  0.10353896  0.92385399     0.08600
H704        H  0.32141047  0.11737382  0.42574607     0.05400
N705        N  0.40198474  0.59557554  0.49193197    -0.03600
C706        C  0.37575413  0.60711106  0.50222139    -0.01000
C707        C  0.36486169  0.59939820  0.03448120    -0.23900
C708        C  0.38330602  0.58070530  0.04220520    -0.24100
C709        C  0.40618575  0.57860040  0.01553946    -0.01100
H710        H  0.34571417  0.60772886  0.05179367     0.12700
H711        H  0.38141915  0.57161251  0.06672586     0.12700
N712        N  0.12920022  0.96379149  0.44591424    -0.03600
C713        C  0.15182598  0.94628442  0.44226057    -0.01000
C714        C  0.16196236  0.93723910  0.40457833    -0.23900
C715        C  0.14475897  0.94920485  0.38427612    -0.24100
C716        C  0.12457621  0.96500861  0.41022066    -0.01100
H717        H  0.17897400  0.92220812  0.39299452     0.12700
H718        H  0.14608327  0.94583186  0.35376338     0.12700
Zr719      Zr  0.28307863  0.77139499  0.06774149     2.17500
O720        O  0.32605504  0.76360888  0.09465525    -0.51400
O721        O  0.25737184  0.74722728  0.11202543    -0.74600
O722        O  0.29296524  0.80799489  0.12237027    -0.81400
O723        O  0.29873841  0.70828350  0.48363344    -0.83200
O724        O  0.26974136  0.84825689  0.12161096    -0.78800
O725        O  0.31189767  0.72811563  0.04206490    -0.90400
O726        O  0.21122218  0.74765699  0.10367667    -0.76400
O727        O  0.23972814  0.79762712  0.08499983    -0.85900
O728        O  0.24889164  0.74370975  0.03566405    -0.85600
O729        O  0.29012167  0.81444223  0.04733247    -0.72300
O730        O  0.29762849  0.76350988  0.50132326    -0.84500
Zr731      Zr  0.22673826  0.80389393  0.46497940     2.26400
Zr732      Zr  0.24609539  0.84017494  0.06403878     2.06300
Zr733      Zr  0.26235376  0.73672134  0.46978797     2.10000
Zr734      Zr  0.20574087  0.77010591  0.05241172     1.78800
O735        O  0.28875713  0.70286541  0.41870991    -0.93300
O736        O  0.17498292  0.79583910  0.10663308    -0.41100
O737        O  0.21842787  0.76156639  0.48514155    -0.77700
O738        O  0.21115679  0.81284546  0.03236333    -0.96400
O739        O  0.26063661  0.83186515  0.49695968    -0.89700
O740        O  0.27016277  0.77830618  0.44844310    -0.92500
C741        C  0.23186170  0.74112830  0.11984034     1.01200
C742        C  0.31423445  0.70908684  0.01107798     1.14100
C743        C  0.28599976  0.83381481  0.13645602     1.04900
O744        O  0.21054092  0.85957275  0.11612226    -0.94700
O745        O  0.21770475  0.87347074  0.04087573    -0.90400
O746        O  0.20710534  0.85088220  0.48210842    -0.83600
C747        C  0.20611678  0.87199870  0.51010754     1.11600
O748        O  0.35126385  0.80715309  0.49826910    -0.96700
Zr749      Zr  0.30373977  0.80601192  0.48056097     1.88900
O750        O  0.25061658  0.82328716  0.41607423    -0.73300
O751        O  0.27092928  0.88316331  0.06793927    -0.52600
O752        O  0.32000680  0.85335461  0.49462283    -0.97300
O753        O  0.33775352  0.77820922  0.43207079    -0.54500
O754        O  0.29688459  0.82240939  0.42369551    -0.73800
C755        C  0.27617508  0.82734131  0.40618580     0.98500
O756        O  0.17946259  0.80666902  0.44718414    -0.62600
O757        O  0.23013481  0.69986440  0.47464202    -0.57500
O758        O  0.22087007  0.77032899  0.40643497    -0.94100
O759        O  0.24734352  0.73199617  0.40741439    -0.92600
O760        O  0.18399321  0.72560918  0.03342700    -0.92900
O761        O  0.15774299  0.77521206  0.03865771    -0.91700
C762        C  0.23171632  0.74596797  0.39134416     1.17400
H763        H  0.24780345  0.72575714  0.04208577     0.33300
H764        H  0.19343090  0.82307249  0.03768171     0.44200
H765        H  0.27581881  0.77419343  0.42153698     0.37700
H766        H  0.30452166  0.82469499  0.06028109     0.34200
H767        H  0.16248155  0.78180857  0.11413459     0.25900
H768        H  0.26220778  0.89580241  0.09145674     0.31900
H769        H  0.30438606  0.86511299  0.49027454     0.37800
H770        H  0.19533109  0.71213871  0.04266467     0.32300
H771        H  0.22565730  0.69257996  0.44841756     0.31100
H772        H  0.27863173  0.68539666  0.41708391     0.32800
H773        H  0.32879082  0.77528969  0.40830669     0.31800
H774        H  0.15862243  0.76954878  0.01072467     0.35800
H775        H  0.17282774  0.78748992  0.44393829     0.28500
H776        H  0.32079680  0.76463564  0.12193396     0.32700
H777        H  0.36221403  0.81635512  0.48033673     0.35600
H778        H  0.24175537  0.68483367  0.48012656     0.28200
H779        H  0.16806861  0.81705056  0.47034582     0.41100
H780        H  0.19313347  0.85068588  0.10840029     0.31100
H781        H  0.18706383  0.80063424  0.12737255     0.38700
H782        H  0.33815944  0.75965300  0.43818083     0.30600
H783        H  0.28992318  0.87873589  0.07359960     0.30700
H784        H  0.33749418  0.77995809  0.09351594     0.30900
N785        N  0.19974380  0.67232115  0.22405329    -0.03600
C786        C  0.19249169  0.64532725  0.21270572    -0.01000
C787        C  0.20585714  0.62853044  0.23172503    -0.23900
C788        C  0.22095833  0.64547063  0.25649557    -0.24100
C789        C  0.21658298  0.67205356  0.25172654    -0.01100
H790        H  0.20233597  0.60681566  0.23094776     0.12700
H791        H  0.23124740  0.63957134  0.27875348     0.12700
N792        N  0.33580548  0.88778651  0.27135617    -0.03600
C793        C  0.35551007  0.90739430  0.27876342    -0.01000
C794        C  0.35572329  0.91749931  0.31724753    -0.23900
C795        C  0.33583823  0.90409090  0.33469411    -0.24100
C796        C  0.32396103  0.88621134  0.30639692    -0.01100
H797        H  0.36949164  0.93268692  0.33111286     0.12700
H798        H  0.33113991  0.90631442  0.36493620     0.12700
Zr799      Zr  0.03376080  0.55812878  0.16125536     2.17500
O800        O  0.03034501  0.60237483  0.14252575    -0.51400
O801        O  0.06215383  0.53174631  0.10546273    -0.74600
O802        O  0.07715114  0.58260887  0.16653937    -0.81400
O803        O  0.46828140  0.53442703  0.12325606    -0.83200
O804        O  0.09332161  0.57643141  0.22081449    -0.78800
O805        O  0.00411246  0.55813490  0.11119521    -0.90400
O806        O  0.06469119  0.98691855  0.10934438    -0.76400
O807        O  0.06332444  0.52874831  0.18546008    -0.85900
O808        O  0.01429026  0.51341422  0.14920840    -0.85600
O809        O  0.03248974  0.57907992  0.22769819    -0.72300
O810        O  0.48899743  0.56447335  0.19329611    -0.84500
Zr811      Zr  0.49665177  0.50979929  0.27321914     2.26400
Zr812      Zr  0.06130353  0.54869238  0.25178906     2.06300
Zr813      Zr  0.47105010  0.51885755  0.18124893     2.10000
Zr814      Zr  0.04460335  0.98434879  0.17239946     1.78800
O815        O  0.42477263  0.54108158  0.18813160    -0.93300
O816        O  0.09404685  0.97218884  0.17044951    -0.41100
O817        O  0.49828657  0.98890158  0.20717359    -0.77700
O818        O  0.04246750  0.50327631  0.23994970    -0.96400
O819        O  0.01549660  0.55436368  0.28538844    -0.89700
O820        O  0.46754110  0.53881423  0.24783719    -0.92500
C821        C  0.06872207  0.50586387  0.09235240     1.01200
C822        C  0.48324055  0.54827358  0.10326199     1.14100
C823        C  0.09491288  0.58634628  0.19095614     1.04900
O824        O  0.10843959  0.52940595  0.24935312    -0.94700
O825        O  0.06672176  0.52972065  0.30688652    -0.90400
O826        O  0.02885447  0.00439206  0.31804443    -0.83600
C827        C  0.05278992  0.51435608  0.32569908     1.11600
O828        O  0.48335189  0.62881609  0.24352519    -0.96700
Zr829      Zr  0.48665835  0.58377057  0.26019372     1.88900
O830        O  0.46850125  0.53803317  0.32866681    -0.73300
O831        O  0.07073226  0.58990887  0.29896721    -0.52600
O832        O  0.00789800  0.61937339  0.30535981    -0.97300
O833        O  0.43886238  0.59881952  0.25585830    -0.54500
O834        O  0.46230702  0.58205287  0.32125914    -0.73800
C835        C  0.45876462  0.56323779  0.34035387     0.98500
O836        O  0.99609668  0.96766068  0.29857959    -0.62600
O837        O  0.45899019  0.97918131  0.13428932    -0.57500
O838        O  0.45629979  0.98016594  0.25844839    -0.94100
O839        O  0.43886287  0.98788306  0.20592939    -0.92600
O840        O  0.02511860  0.94589786  0.12980600    -0.88500
O841        O  0.05166898  0.93986465  0.18914518    -0.91700
C842        C  0.43862525  0.97587972  0.23360474     1.17400
H843        H  0.01320021  0.50606350  0.12250548     0.33300
H844        H  0.05412114  0.99010949  0.24918128     0.44200
H845        H  0.44844322  0.53933206  0.25909792     0.37700
H846        H  0.04023311  0.59730163  0.23111955     0.34200
H847        H  0.09816996  0.95730232  0.14720777     0.25900
H848        H  0.06140702  0.58700311  0.32319439     0.31900
H849        H  0.50660510  0.61264829  0.32915475     0.37800
H850        H  0.04134214  0.93652576  0.11249462     0.32300
H851        H  0.44177551  0.98497947  0.12491459     0.31100
H852        H  0.41498132  0.52933988  0.16813408     0.32800
H853        H  0.42679115  0.58623297  0.26741753     0.31800
H854        H  0.03443267  0.93779928  0.20541295     0.35800
H855        H  0.47654366  0.97077694  0.31775271     0.28500
H856        H  0.04621555  0.60193697  0.12283362     0.32700
H857        H  0.47272000  0.64137735  0.26567538     0.35600
H858        H  0.47368854  0.97791577  0.11284824     0.28200
H859        H  0.99518772  0.95165472  0.27688893     0.41100
H860        H  0.11220088  0.51728118  0.22367944     0.31100
H861        H  0.10399092  0.98836073  0.16454695     0.38700
H862        H  0.43656493  0.59349545  0.22852972     0.30600
H863        H  0.09094448  0.58809189  0.30129874     0.30700
H864        H  0.03488421  0.61662477  0.16464270     0.30900
C865        C  0.36873843  0.94030866  0.23889478    -0.20400
C866        C  0.37638458  0.91726922  0.25273605    -0.07000
C867        C  0.40503530  0.91188111  0.25526054     0.13900
C868        C  0.42483487  0.93072188  0.24707389    -0.20500
C869        C  0.41695670  0.95513697  0.23667941    -0.07000
C870        C  0.38867473  0.95935408  0.23072416     0.13900
C871        C  0.37892937  0.98485223  0.21862157    -0.23800
H872        H  0.34675994  0.94488389  0.23804097     0.15200
H873        H  0.44654285  0.92686365  0.25049537     0.15200
C874        C  0.41518073  0.88743812  0.26946492    -0.23800
H875        H  0.35598439  0.98548247  0.21746359     0.05400
H876        H  0.38903011  0.98493286  0.18988683     0.08600
H877        H  0.38541259  0.50390700  0.22953679     0.08600
H878        H  0.39806845  0.87412937  0.27653448     0.08600
H879        H  0.42569677  0.89500788  0.29535550     0.08600
H880        H  0.43034473  0.87436605  0.24735401     0.05400
C881        C  0.16862786  0.60821236  0.17149475    -0.20400
C882        C  0.16705017  0.63538785  0.19438305    -0.07000
C883        C  0.14027690  0.64795180  0.20855692     0.13900
C884        C  0.11647440  0.63197481  0.20382229    -0.20500
C885        C  0.11876036  0.60385085  0.18540043    -0.07000
C886        C  0.14480935  0.59216891  0.16733920     0.13900
C887        C  0.14764003  0.56226798  0.14584194    -0.23800
H888        H  0.18897422  0.59850580  0.16018065     0.15200
H889        H  0.09619716  0.64087349  0.21706351     0.15200
C890        C  0.13656998  0.67735598  0.23128113    -0.23800
H891        H  0.16948624  0.55626667  0.13344059     0.05400
H892        H  0.13413068  0.55907648  0.12244108     0.08600
H893        H  0.14115438  0.54840300  0.16507629     0.08600
H894        H  0.14518198  0.69152579  0.21368320     0.08600
H895        H  0.14715475  0.67952086  0.25731520     0.08600
H896        H  0.11422013  0.68362881  0.24013686     0.05400
C897        C  0.22299043  0.67884638  0.16385039    -0.20400
C898        C  0.20591508  0.69006813  0.19772971    -0.07000
C899        C  0.19891695  0.71902343  0.20682181     0.13900
C900        C  0.20841569  0.73545369  0.18147377    -0.20500
C901        C  0.22542879  0.72401626  0.14785224    -0.07000
C902        C  0.23292495  0.69542121  0.13904829     0.13900
C903        C  0.25104667  0.68226852  0.10309554    -0.23800
H904        H  0.22917617  0.65696115  0.15725383     0.15200
H905        H  0.20231265  0.75738529  0.18787165     0.15200
C906        C  0.18127861  0.73342095  0.24242836    -0.23800
H907        H  0.25480201  0.65962399  0.10041832     0.05400
H908        H  0.27160285  0.69212636  0.10282740     0.08600
H909        H  0.24077574  0.68509535  0.07821216     0.08600
H910        H  0.19382768  0.74884254  0.26005788     0.08600
H911        H  0.17309090  0.71883394  0.25931198     0.08600
H912        H  0.16305289  0.74439670  0.23511762     0.05400
C913        C  0.19697178  0.70218422  0.31218820    -0.20400
C914        C  0.21933689  0.69588568  0.28344407    -0.07000
C915        C  0.24502636  0.70851181  0.28904120     0.13900
C916        C  0.24805370  0.72660484  0.32395466    -0.20500
C917        C  0.22583359  0.73227106  0.35302347    -0.07000
C918        C  0.19980126  0.72051000  0.34678090     0.13900
C919        C  0.17557338  0.72585825  0.37738898    -0.23800
H920        H  0.17757757  0.69164476  0.30814128     0.15200
H921        H  0.26813495  0.73540733  0.32923032     0.15200
C922        C  0.26938518  0.70199965  0.25875911    -0.23800
H923        H  0.15692203  0.71448403  0.36792763     0.05400
H924        H  0.16977063  0.74840595  0.38528597     0.08600
H925        H  0.18140318  0.71899929  0.40269272     0.08600
H926        H  0.26365637  0.70781637  0.23269988     0.08600
H927        H  0.27505488  0.67942168  0.25225551     0.08600
H928        H  0.28801910  0.71361279  0.26772400     0.05400
C929        C  0.32707240  0.84349473  0.17375171    -0.20400
C930        C  0.29848425  0.84812526  0.17138980    -0.07000
C931        C  0.28273176  0.86650423  0.20211459     0.13900
C932        C  0.29592844  0.87980436  0.23373325    -0.20500
C933        C  0.32460618  0.87557467  0.23597088    -0.07000
C934        C  0.34035832  0.85705290  0.20529240     0.13900
C935        C  0.37091181  0.85069842  0.20563783    -0.23800
H936        H  0.33925031  0.82940297  0.15037663     0.15200
H937        H  0.28365521  0.89349509  0.25739814     0.15200
C938        C  0.25171940  0.87129693  0.20261354    -0.23800
H939        H  0.37916850  0.83399288  0.18096537     0.05400
H940        H  0.37455688  0.84361624  0.23153136     0.08600
H941        H  0.38291344  0.86932899  0.20389978     0.08600
H942        H  0.24129100  0.85110133  0.19864572     0.08600
H943        H  0.24738412  0.88179786  0.17977315     0.08600
H944        H  0.24241263  0.88471756  0.22987958     0.05400
C945        C  0.28025219  0.87655636  0.34021718    -0.20400
C946        C  0.30445566  0.86562990  0.31631805    -0.07000
C947        C  0.31511831  0.83895222  0.31685278     0.13900
C948        C  0.30397391  0.82575877  0.34501211    -0.20500
C949        C  0.28241496  0.83867521  0.37235116    -0.07000
C950        C  0.26928131  0.86360163  0.36877886     0.13900
C951        C  0.24574560  0.87808511  0.39727827    -0.23800
H952        H  0.27226855  0.89714322  0.33985302     0.15200
H953        H  0.31333077  0.80615399  0.34726556     0.15200
C954        C  0.33991900  0.82557997  0.29016012    -0.23800
H955        H  0.23900265  0.89813590  0.39129117     0.05400
H956        H  0.25257747  0.88253163  0.42614283     0.08600
H957        H  0.22738851  0.86474772  0.39657887     0.08600
H958        H  0.35818293  0.83892802  0.29417591     0.08600
H959        H  0.33469923  0.82248377  0.26060683     0.08600
H960        H  0.34586983  0.80492063  0.29496106     0.05400
C961        C  0.10915664  0.50780091  0.04536484    -0.20400
C962        C  0.08290489  0.49744780  0.05361509    -0.07000
C963        C  0.07134544  0.98131465  0.02316174     0.13900
C964        C  0.08676192  0.97190765  0.98760392    -0.20500
C965        C  0.11465479  0.97884472  0.98118234    -0.07000
C966        C  0.12420346  0.49880849  0.00952441     0.13900
C967        C  0.15463883  0.50994065  0.50187328    -0.23800
H968        H  0.11817933  0.52259169  0.06716636     0.15200
H969        H  0.07733541  0.95833040  0.96515662     0.15200
C970        C  0.04131774  0.97363197  0.02881405    -0.23800
H971        H  0.16929010  0.50381115  0.52048130     0.05400
H972        H  0.15272185  0.53298877  0.50775723     0.08600
H973        H  0.16363906  0.50257117  0.47199966     0.08600
H974        H  0.02769383  0.99282313  0.03775439     0.08600
H975        H  0.03860405  0.96133678  0.05087631     0.08600
H976        H  0.03439781  0.96098266  0.00236361     0.05400
C977        C  0.10181275  0.50911715  0.40013525    -0.20400
C978        C  0.10090845  0.97938687  0.39866162    -0.07000
C979        C  0.07995747  0.96397168  0.37992779     0.13900
C980        C  0.06266565  0.97672111  0.35939775    -0.20500
C981        C  0.06663495  0.50479551  0.35557657    -0.07000
C982        C  0.08521243  0.52137413  0.37809525     0.13900
C983        C  0.08801647  0.55184581  0.37876868    -0.23800
H984        H  0.11734735  0.52121493  0.41535783     0.15200
H985        H  0.04750953  0.96440115  0.34368855     0.15200
C986        C  0.07699634  0.93349191  0.37933197    -0.23800
H987        H  0.10156670  0.56190354  0.40038059     0.05400
H988        H  0.06714336  0.56268825  0.38575416     0.08600
H989        H  0.09763527  0.55467699  0.35098718     0.08600
H990        H  0.07306433  0.93035203  0.40852242     0.08600
H991        H  0.09631674  0.92151987  0.36521060     0.08600
H992        H  0.05935669  0.92475158  0.36370502     0.05400
C993        C  0.18758743  0.93925931  0.48398213    -0.20400
C994        C  0.16120018  0.93304679  0.47179462    -0.07000
C995        C  0.14781222  0.90945011  0.47981570     0.13900
C996        C  0.16201558  0.89151320  0.49704561    -0.20500
C997        C  0.18943889  0.89625415  0.50585681    -0.07000
C998        C  0.20184572  0.92115118  0.50120852     0.13900
C999        C  0.23083651  0.92753081  0.51168450    -0.23800
H1000       H  0.19797858  0.95714372  0.47728824     0.15200
H1001       H  0.15256443  0.87237413  0.50076871     0.15200
C1002       C  0.11958967  0.90169226  0.46724805    -0.23800
H1003       H  0.23755328  0.94767603  0.50568888     0.05400
H1004       H  0.24595352  0.91093602  0.49533174     0.08600
H1005       H  0.23180962  0.92843893  0.04383334     0.08600
H1006       H  0.12009016  0.89933637  0.43617327     0.08600
H1007       H  0.10375555  0.91798603  0.48199910     0.08600
H1008       H  0.11293650  0.88177609  0.47407492     0.05400
C1009       C  0.45229883  0.58678162  0.03754446    -0.20400
C1010       C  0.43322960  0.56738872  0.02237192    -0.07000
C1011       C  0.43592686  0.53972367  0.02618944     0.13900
C1012       C  0.45500703  0.53309839  0.04975040    -0.20500
C1013       C  0.47121768  0.55367172  0.06965976    -0.07000
C1014       C  0.47124147  0.58036219  0.06141737     0.13900
C1015       C  0.48886266  0.60308417  0.08063339    -0.23800
H1016       H  0.44991149  0.60806348  0.03490703     0.15200
H1017       H  0.45568100  0.51232618  0.05496776     0.15200
C1018       C  0.41752833  0.51769058  0.00712163    -0.23800
H1019       H  0.48557207  0.62279242  0.07148730     0.05400
H1020       H  0.00808543  0.59577957  0.07172460     0.08600
H1021       H  0.48338894  0.60737071  0.11177593     0.08600
H1022       H  0.42058513  0.51587374  0.97604688     0.08600
H1023       H  0.39524939  0.52313724  0.01751043     0.08600
H1024       H  0.42258017  0.49704629  0.01268768     0.05400
C1025       C  0.44643403  0.59830113  0.40122080    -0.20400
C1026       C  0.44300371  0.57154522  0.37886380    -0.07000
C1027       C  0.42485054  0.55348478  0.39396693     0.13900
C1028       C  0.41119571  0.56245906  0.43076939    -0.20500
C1029       C  0.41529814  0.58878444  0.45343842    -0.07000
C1030       C  0.43307867  0.60699102  0.43841815     0.13900
C1031       C  0.43848415  0.63525389  0.46162318    -0.23800
H1032       H  0.46023831  0.61227800  0.38986697     0.15200
H1033       H  0.39727755  0.54870740  0.44237603     0.15200
C1034       C  0.41910146  0.52498715  0.37136520    -0.23800
H1035       H  0.45373211  0.64639118  0.44598448     0.05400
H1036       H  0.44706198  0.63328056  0.48800525     0.08600
H1037       H  0.41886154  0.64812324  0.46870242     0.08600
H1038       H  0.43832608  0.51140077  0.36575418     0.08600
H1039       H  0.41150805  0.52668670  0.34417145     0.08600
H1040       H  0.40291980  0.51466063  0.38678376     0.05400
C1041       C  0.37291429  0.65811477  0.51982734    -0.20400
C1042       C  0.36583186  0.63366804  0.49523149    -0.07000
C1043       C  0.34395552  0.63497668  0.97511525     0.13900
C1044       C  0.32804861  0.65980444  0.97979310    -0.20500
C1045       C  0.33395006  0.68439183  0.00572419    -0.07000
C1046       C  0.35809587  0.68423325  0.02490438     0.13900
C1047       C  0.36694441  0.70977971  0.05141857    -0.23800
H1048       H  0.38975156  0.65705136  0.53713316     0.15200
H1049       H  0.30997481  0.65947416  0.96430205     0.15200
C1050       C  0.33557805  0.60880774  0.94928317    -0.23800
H1051       H  0.38565108  0.70434642  0.56353197     0.05400
H1052       H  0.35134458  0.71548041  0.07666592     0.08600
H1053       H  0.36833396  0.72599861  0.53865649     0.08600
H1054       H  0.33003512  0.59294229  0.96583243     0.08600
H1055       H  0.35379308  0.60034368  0.42530496     0.08600
H1056       H  0.31726488  0.61265850  0.93467882     0.05400
N1057       N  0.40277172  0.59556617  0.99155713    -0.03600
C1058       C  0.37708973  0.60820079  0.00344511    -0.01000
C1059       C  0.36296684  0.59789698  0.53261243    -0.23900
C1060       C  0.38176125  0.58017865  0.54174846    -0.24100
C1061       C  0.40531201  0.57898830  0.51639200    -0.01100
H1062       H  0.34322349  0.60557312  0.54884451     0.12700
H1063       H  0.37947202  0.57110638  0.56627639     0.12700
N1064       N  0.13102778  0.96582591  0.94617025    -0.03600
C1065       C  0.15435487  0.94917014  0.94234768    -0.01000
C1066       C  0.16502360  0.94122523  0.90472799    -0.23900
C1067       C  0.14745333  0.95294750  0.88462713    -0.24100
C1068       C  0.12655022  0.96757056  0.91060461    -0.01100
H1069       H  0.18251111  0.92681707  0.89293931     0.12700
H1070       H  0.14901238  0.95009727  0.85416204     0.12700
Zr1071     Zr  0.28219099  0.77028403  0.56774734     2.17500
O1072       O  0.32346010  0.76150105  0.59765598    -0.51400
O1073       O  0.25616004  0.74580156  0.61118092    -0.74600
O1074       O  0.29171844  0.80744940  0.62213387    -0.81400
O1075       O  0.29977305  0.70929908  0.98362449    -0.83200
O1076       O  0.26808037  0.84749424  0.62138488    -0.78800
O1077       O  0.31188761  0.72767615  0.54124023    -0.90400
O1078       O  0.21000199  0.74681796  0.60295802    -0.76400
O1079       O  0.23909871  0.79685642  0.58456075    -0.85900
O1080       O  0.24773690  0.74283526  0.53572972    -0.85600
O1081       O  0.28972677  0.81319412  0.54719861    -0.72300
O1082       O  0.29834244  0.76510874  0.00127668    -0.84500
Zr1083     Zr  0.22684554  0.80477373  0.96595561     2.26400
Zr1084     Zr  0.24572491  0.83912069  0.56309381     2.06300
Zr1085     Zr  0.26335594  0.73788697  0.96970879     2.10000
Zr1086     Zr  0.20488906  0.76977959  0.55199227     1.78800
O1087       O  0.28985704  0.70456672  0.91817397    -0.93300
O1088       O  0.17539049  0.79783401  0.60573718    -0.41100
O1089       O  0.21907448  0.76211831  0.98547165    -0.77700
O1090       O  0.21081005  0.81212266  0.53119549    -0.96400
O1091       O  0.26050738  0.83323393  0.99780644    -0.89700
O1092       O  0.27047647  0.77972825  0.94882293    -0.92500
C1093       C  0.23059975  0.73990002  0.61892988     1.01200
C1094       C  0.31378229  0.70839089  0.51053669     1.14100
C1095       C  0.28432289  0.83317616  0.63633674     1.04900
O1096       O  0.20806168  0.85622788  0.61314982    -0.94700
O1097       O  0.21795808  0.87293303  0.54046870    -0.90400
O1098       O  0.20734877  0.85155541  0.98218848    -0.83600
C1099       C  0.20621046  0.87261744  0.01020057     1.11600
O1100       O  0.35150450  0.80887957  0.99748887    -0.96700
Zr1101     Zr  0.30377667  0.80780210  0.98062863     1.88900
O1102       O  0.24950965  0.82444452  0.91648767    -0.73300
O1103       O  0.26971338  0.88271536  0.56865799    -0.52600
O1104       O  0.32080925  0.85487341  0.99390634    -0.97300
O1105       O  0.33670330  0.78011859  0.93050803    -0.54500
O1106       O  0.29570609  0.82485091  0.92446657    -0.73800
C1107       C  0.27490128  0.82919591  0.90671584     0.98500
O1108       O  0.17907296  0.80610502  0.94956549    -0.62600
O1109       O  0.23105451  0.70112415  0.97465951    -0.57500
O1110       O  0.22212070  0.77211540  0.90642339    -0.94100
O1111       O  0.24857287  0.73368977  0.90713890    -0.92600
O1112       O  0.18186601  0.72613085  0.53254465    -0.92900
O1113       O  0.15689736  0.77483746  0.53819347    -0.91700
C1114       C  0.23316686  0.74789756  0.89105414     1.17400
H1115       H  0.24635728  0.72490279  0.54213499     0.33300
H1116       H  0.19316940  0.82250918  0.53642790     0.44200
H1117       H  0.27610328  0.77590358  0.92193696     0.37700
H1118       H  0.30407539  0.82346854  0.56025015     0.34200
H1119       H  0.16243396  0.78459278  0.61437643     0.25900
H1120       H  0.26059785  0.89498586  0.59222852     0.31900
H1121       H  0.30414244  0.86718667  0.99527829     0.37800
H1122       H  0.17325975  0.72191853  0.55638647     0.32300
H1123       H  0.22412520  0.69595347  0.94946625     0.31100
H1124       H  0.27954454  0.68717062  0.91588333     0.32800
H1125       H  0.32771024  0.77854509  0.90691831     0.31800
H1126       H  0.15860559  0.77757269  0.51196884     0.35800
H1127       H  0.17283056  0.78688033  0.94770213     0.28500
H1128       H  0.31712794  0.76307291  0.62479691     0.32700
H1129       H  0.36245619  0.81722556  0.97859844     0.35600
H1130       H  0.24305984  0.68499158  0.97599271     0.28200
H1131       H  0.16795525  0.81698444  0.97263898     0.41100
H1132       H  0.21172171  0.87612623  0.62243748     0.31100
H1133       H  0.18780598  0.80274133  0.62606598     0.38700
H1134       H  0.33628197  0.76115106  0.93528526     0.30600
H1135       H  0.28870343  0.87854959  0.57457751     0.30700
H1136       H  0.33564357  0.77737478  0.59682359     0.30900
N1137       N  0.20059517  0.67241920  0.72541919    -0.03600
C1138       C  0.19307468  0.64545714  0.71556057    -0.01000
C1139       C  0.20615637  0.62932806  0.73568859    -0.23900
C1140       C  0.22170528  0.64672176  0.75935057    -0.24100
C1141       C  0.21774587  0.67293491  0.75293373    -0.01100
H1142       H  0.20223002  0.60788786  0.73626940     0.12700
H1143       H  0.23192170  0.64150978  0.78211906     0.12700
N1144       N  0.33281024  0.89010026  0.77054842    -0.03600
C1145       C  0.35002745  0.91210420  0.77671821    -0.01000
C1146       C  0.34806377  0.92499056  0.81467711    -0.23900
C1147       C  0.32934677  0.91092982  0.83303613    -0.24100
C1148       C  0.32028899  0.88987906  0.80579132    -0.01100
H1149       H  0.36016600  0.94207934  0.82778712     0.12700
H1150       H  0.32375544  0.91483134  0.86333512     0.12700
Zr1151     Zr  0.03492887  0.55871252  0.66225731     2.17500
O1152       O  0.03289584  0.60342191  0.64439630    -0.51400
O1153       O  0.06331815  0.53263761  0.60613229    -0.74600
O1154       O  0.07862162  0.58229072  0.66832362    -0.81400
O1155       O  0.46936445  0.53614038  0.62313715    -0.83200
O1156       O  0.09464081  0.57502029  0.72216097    -0.78800
O1157       O  0.00541373  0.56022050  0.61254131    -0.90400
O1158       O  0.06627943  0.98748358  0.61040955    -0.76400
O1159       O  0.06432534  0.52997880  0.68772202    -0.85900
O1160       O  0.01644470  0.51355592  0.64927883    -0.85600
O1161       O  0.03212075  0.57970098  0.72888300    -0.72300
O1162       O  0.49055239  0.56605176  0.69363915    -0.84500
Zr1163     Zr  0.49803045  0.51022280  0.77266470     2.26400
Zr1164     Zr  0.06066483  0.54981101  0.75421459     2.06300
Zr1165     Zr  0.47116862  0.52108473  0.68173236     2.10000
Zr1166     Zr  0.04583822  0.98473835  0.67319546     1.78800
O1167       O  0.42612394  0.54614243  0.69091792    -0.93300
O1168       O  0.09502212  0.97222173  0.67261113    -0.41100
O1169       O  0.49809094  0.98896863  0.70637145    -0.77700
O1170       O  0.04286750  0.50405426  0.74151429    -0.96400
O1171       O  0.01435100  0.55477596  0.78622507    -0.89700
O1172       O  0.46909398  0.54024419  0.74842627    -0.92500
C1173       C  0.07152993  0.50706147  0.59399347     1.01200
C1174       C  0.48426251  0.54982803  0.60287394     1.14100
C1175       C  0.09649852  0.58516659  0.69250090     1.04900
O1176       O  0.10685004  0.53050227  0.75784970    -0.94700
O1177       O  0.06471232  0.53216658  0.81064221    -0.90400
O1178       O  0.02997409  0.00606836  0.81874423    -0.83600
C1179       C  0.05148780  0.51549418  0.82794559     1.11600
O1180       O  0.48501703  0.63100450  0.74865683    -0.96700
Zr1181     Zr  0.48940613  0.58459560  0.76080321     1.88900
O1182       O  0.46952762  0.53768320  0.82828979    -0.73300
O1183       O  0.06854631  0.59250714  0.79967558    -0.52600
O1184       O  0.00656058  0.62168435  0.80135903    -0.97300
O1185       O  0.44192203  0.60241644  0.76051238    -0.54500
O1186       O  0.46579406  0.58231289  0.82232479    -0.73800
C1187       C  0.46095460  0.56320672  0.84069254     0.98500
O1188       O  0.99766217  0.96898374  0.79997567    -0.62600
O1189       O  0.45870006  0.98035798  0.63252066    -0.57500
O1190       O  0.45485008  0.98097518  0.75820084    -0.94100
O1191       O  0.43900110  0.98766353  0.70423676    -0.92600
O1192       O  0.02639187  0.94643383  0.63036054    -0.88500
O1193       O  0.05192059  0.93971948  0.68892918    -0.91700
C1194       C  0.43772129  0.97635020  0.73261280     1.17400
H1195       H  0.01595902  0.50624275  0.62244162     0.33300
H1196       H  0.05541819  0.99116012  0.75010133     0.44200
H1197       H  0.45009777  0.54117517  0.76017417     0.37700
H1198       H  0.03971790  0.59800235  0.73254018     0.34200
H1199       H  0.09875366  0.95579362  0.65127450     0.25900
H1200       H  0.06005233  0.58963814  0.82435077     0.31900
H1201       H  0.50415571  0.61948730  0.82949345     0.37800
H1202       H  0.04245288  0.93772926  0.61217362     0.32300
H1203       H  0.44118429  0.98626827  0.62398376     0.31100
H1204       H  0.42911730  0.56137903  0.67746372     0.32800
H1205       H  0.42960712  0.58956770  0.77117214     0.31800
H1206       H  0.04219483  0.94208007  0.71478337     0.35800
H1207       H  0.47560734  0.96978379  0.81528031     0.28500
H1208       H  0.04909001  0.60298729  0.62517825     0.32700
H1209       H  0.47766488  0.64326436  0.77324301     0.35600
H1210       H  0.47304854  0.97974019  0.61084727     0.28200
H1211       H  0.99593382  0.95281363  0.77879871     0.41100
H1212       H  0.10527269  0.51011862  0.74972385     0.31100
H1213       H  0.10525376  0.98724519  0.66382440     0.38700
H1214       H  0.43881844  0.59875482  0.73344585     0.30600
H1215       H  0.08891047  0.59197142  0.80149357     0.30700
H1216       H  0.03727407  0.61738248  0.66691321     0.30900
C1217       C  0.36694903  0.94176512  0.73380325    -0.20400
C1218       C  0.37271127  0.91993162  0.75106446    -0.07000
C1219       C  0.40067224  0.91474841  0.75734858     0.13900
C1220       C  0.42145380  0.93281813  0.74953641    -0.20500
C1221       C  0.41528020  0.95623363  0.73565923    -0.07000
C1222       C  0.38781511  0.96006139  0.72601820     0.13900
C1223       C  0.37963587  0.98451576  0.71039024    -0.23800
H1224       H  0.34546207  0.94619746  0.72994787     0.15200
H1225       H  0.44250679  0.92917988  0.75592149     0.15200
C1226       C  0.40883095  0.89161672  0.77550534    -0.23800
H1227       H  0.35702549  0.98507141  0.70680197     0.05400
H1228       H  0.39130658  0.98316882  0.68213471     0.08600
H1229       H  0.38659037  0.50614702  0.73511333     0.08600
H1230       H  0.39104608  0.87877073  0.78148924     0.08600
H1231       H  0.41726388  0.90053597  0.80267814     0.08600
H1232       H  0.42516133  0.87775927  0.75634568     0.05400
C1233       C  0.16956684  0.60888931  0.67304924    -0.20400
C1234       C  0.16760998  0.63540789  0.69769998    -0.07000
C1235       C  0.14080801  0.64688786  0.71386486     0.13900
C1236       C  0.11742131  0.63051538  0.70863420    -0.20500
C1237       C  0.12008821  0.60302783  0.68783430    -0.07000
C1238       C  0.14604100  0.59246755  0.66808636     0.13900
C1239       C  0.14911726  0.56342428  0.64370160    -0.23800
H1240       H  0.18999862  0.59998341  0.66056407     0.15200
H1241       H  0.09716984  0.63853089  0.72311804     0.15200
C1242       C  0.13671179  0.67549305  0.73900962    -0.23800
H1243       H  0.17088342  0.55832335  0.63030589     0.05400
H1244       H  0.13517686  0.56144937  0.62087760     0.08600
H1245       H  0.14334314  0.54813130  0.66109006     0.08600
H1246       H  0.14354013  0.69083771  0.72230615     0.08600
H1247       H  0.14868073  0.67702000  0.76371212     0.08600
H1248       H  0.11445166  0.68065202  0.75002407     0.05400
C1249       C  0.22277298  0.67810628  0.66424602    -0.20400
C1250       C  0.20586181  0.68956914  0.69819643    -0.07000
C1251       C  0.19809937  0.71830407  0.70644132     0.13900
C1252       C  0.20696651  0.73439845  0.68042201    -0.20500
C1253       C  0.22410080  0.72285032  0.64696082    -0.07000
C1254       C  0.23218694  0.69439636  0.63879957     0.13900
C1255       C  0.25054760  0.68114748  0.60307120    -0.23800
H1256       H  0.22939737  0.65634983  0.65825908     0.15200
H1257       H  0.20046661  0.75621268  0.68632200     0.15200
C1258       C  0.18044480  0.73281332  0.74198329    -0.23800
H1259       H  0.25459640  0.65859589  0.60083184     0.05400
H1260       H  0.27096853  0.69126328  0.60277225     0.08600
H1261       H  0.24033312  0.68353380  0.57794786     0.08600
H1262       H  0.19262450  0.74908521  0.75878009     0.08600
H1263       H  0.17323262  0.71847548  0.75982324     0.08600
H1264       H  0.16162496  0.74277235  0.73454523     0.05400
C1265       C  0.19835825  0.70344052  0.81307217    -0.20400
C1266       C  0.22037884  0.69738151  0.78384003    -0.07000
C1267       C  0.24570024  0.71096848  0.78833660     0.13900
C1268       C  0.24892907  0.72931380  0.82304894    -0.20500
C1269       C  0.22713211  0.73441306  0.85275206    -0.07000
C1270       C  0.20126296  0.72216920  0.84723230     0.13900
C1271       C  0.17729273  0.72750046  0.87823299    -0.23800
H1272       H  0.17922247  0.69235684  0.80983873     0.15200
H1273       H  0.26884454  0.73869466  0.82766557     0.15200
C1274       C  0.26947210  0.70516849  0.75715628    -0.23800
H1275       H  0.15872676  0.71572610  0.86936406     0.05400
H1276       H  0.17115303  0.74997789  0.88569463     0.08600
H1277       H  0.18356287  0.72114961  0.90367426     0.08600
H1278       H  0.26267093  0.71055053  0.73135737     0.08600
H1279       H  0.27600730  0.68279257  0.75058842     0.08600
H1280       H  0.28783729  0.71756759  0.76522655     0.05400
C1281       C  0.32494621  0.84362901  0.67413140    -0.20400
C1282       C  0.29631497  0.84767403  0.67146141    -0.07000
C1283       C  0.28015234  0.86609267  0.70173307     0.13900
C1284       C  0.29308591  0.88016116  0.73310411    -0.20500
C1285       C  0.32182935  0.87659230  0.73558732    -0.07000
C1286       C  0.33796879  0.85797545  0.70544943     0.13900
C1287       C  0.36874128  0.85270898  0.70585762    -0.23800
H1288       H  0.33740393  0.82957417  0.65100960     0.15200
H1289       H  0.28057708  0.89405055  0.75632924     0.15200
C1290       C  0.24904375  0.87023433  0.70200949    -0.23800
H1291       H  0.37732658  0.83577114  0.68167215     0.05400
H1292       H  0.37293748  0.84649644  0.73215200     0.08600
H1293       H  0.38010708  0.87157642  0.70328401     0.08600
H1294       H  0.23899974  0.84984816  0.69840122     0.08600
H1295       H  0.24446119  0.88034823  0.67890177     0.08600
H1296       H  0.23948950  0.88375366  0.72906904     0.05400
C1297       C  0.27732216  0.87773505  0.83957334    -0.20400
C1298       C  0.30259989  0.86834012  0.81720875    -0.07000
C1299       C  0.31493840  0.84263232  0.81907485     0.13900
C1300       C  0.30396914  0.82900327  0.84686143    -0.20500
C1301       C  0.28096734  0.84049171  0.87266835    -0.07000
C1302       C  0.26630373  0.86415431  0.86748538     0.13900
C1303       C  0.24061315  0.87661009  0.89332111    -0.23800
H1304       H  0.26792616  0.89751195  0.83809033     0.15200
H1305       H  0.31446283  0.81020105  0.85004635     0.15200
C1306       C  0.34096562  0.83066420  0.79402810    -0.23800
H1307       H  0.23263459  0.89580432  0.88614107     0.05400
H1308       H  0.24550036  0.88209093  0.92314501     0.08600
H1309       H  0.22370928  0.86149652  0.89066570     0.08600
H1310       H  0.35806002  0.84542431  0.79856969     0.08600
H1311       H  0.33651041  0.82641284  0.76408594     0.08600
H1312       H  0.34819580  0.81074416  0.79993281     0.05400
C1313       C  0.11193505  0.50792215  0.54607122    -0.20400
C1314       C  0.08538426  0.49843660  0.55500040    -0.07000
C1315       C  0.07099342  0.98044847  0.52447496     0.13900
C1316       C  0.08565826  0.97077278  0.48853463    -0.20500
C1317       C  0.11338199  0.97771918  0.48084348    -0.07000
C1318       C  0.12641304  0.49854658  0.50983986     0.13900
C1319       C  0.15189217  0.51138868  0.00206995    -0.23800
H1320       H  0.12164757  0.52225943  0.56763377     0.15200
H1321       H  0.07593685  0.95665881  0.46696528     0.15200
C1322       C  0.04140120  0.97194549  0.53190867    -0.23800
H1323       H  0.16664637  0.50609256  0.02112709     0.05400
H1324       H  0.14895878  0.53435953  0.00770933     0.08600
H1325       H  0.16135114  0.50418366  0.97237535     0.08600
H1326       H  0.02726048  0.99074779  0.54122608     0.08600
H1327       H  0.03999055  0.95988893  0.55427969     0.08600
H1328       H  0.03403826  0.95873928  0.50616089     0.05400
C1329       C  0.10185728  0.51022240  0.90070342    -0.20400
C1330       C  0.10236373  0.98127994  0.89912887    -0.07000
C1331       C  0.08247025  0.96524524  0.87888039     0.13900
C1332       C  0.06503971  0.97777149  0.85828829    -0.20500
C1333       C  0.06557437  0.50594549  0.85771270    -0.07000
C1334       C  0.08415852  0.52265059  0.88013048     0.13900
C1335       C  0.08559693  0.55350121  0.88256770    -0.23800
H1336       H  0.11736437  0.52246517  0.91579591     0.15200
H1337       H  0.05090355  0.96501855  0.84115378     0.15200
C1338       C  0.08068096  0.93449112  0.87704877    -0.23800
H1339       H  0.09917971  0.56348319  0.90418362     0.05400
H1340       H  0.06437951  0.56349226  0.89069437     0.08600
H1341       H  0.09445449  0.55762292  0.85514919     0.08600
H1342       H  0.07637453  0.93074589  0.90590958     0.08600
H1343       H  0.10058497  0.92343576  0.86342112     0.08600
H1344       H  0.06371911  0.92527253  0.86037734     0.05400
C1345       C  0.18925987  0.94061848  0.98467817    -0.20400
C1346       C  0.16328234  0.93469333  0.97092610    -0.07000
C1347       C  0.14978145  0.91055742  0.97666750     0.13900
C1348       C  0.16315898  0.89226842  0.99420579    -0.20500
C1349       C  0.19005309  0.89699359  0.00523778    -0.07000
C1350       C  0.20286186  0.92196849  0.00180601     0.13900
C1351       C  0.23174607  0.92777133  0.01319174    -0.23800
H1352       H  0.19988183  0.95877413  0.97934872     0.15200
H1353       H  0.15355761  0.87289930  0.99647483     0.15200
C1354       C  0.12242467  0.90264036  0.96126459    -0.23800
H1355       H  0.23889419  0.94801427  0.00803995     0.05400
H1356       H  0.24681810  0.91117640  0.99666970     0.08600
H1357       H  0.23133256  0.92878337  0.54240501     0.08600
H1358       H  0.12438326  0.90106425  0.93023193     0.08600
H1359       H  0.10592370  0.91844765  0.97531650     0.08600
H1360       H  0.11565546  0.88228223  0.96641936     0.05400
C1361       C  0.45159378  0.58795126  0.53825136    -0.20400
C1362       C  0.43237201  0.56834574  0.52403069    -0.07000
C1363       C  0.43560906  0.54072599  0.52779558     0.13900
C1364       C  0.45555476  0.53429597  0.55025748    -0.20500
C1365       C  0.47197266  0.55501510  0.56937131    -0.07000
C1366       C  0.47153503  0.58162442  0.56091239     0.13900
C1367       C  0.49011211  0.60416004  0.57821966    -0.23800
H1368       H  0.44892458  0.60916529  0.53542376     0.15200
H1369       H  0.45666602  0.51355768  0.55552754     0.15200
C1370       C  0.41690575  0.51848477  0.51000138    -0.23800
H1371       H  0.48660163  0.62370210  0.56874761     0.05400
H1372       H  0.00720732  0.60040524  0.57691683     0.08600
H1373       H  0.48587794  0.60890924  0.60954988     0.08600
H1374       H  0.41870181  0.51674443  0.47895284     0.08600
H1375       H  0.39485805  0.52360871  0.52193289     0.08600
H1376       H  0.42272597  0.49786841  0.51505091     0.05400
C1377       C  0.44864192  0.59801644  0.90190336    -0.20400
C1378       C  0.44482384  0.57152684  0.87904543    -0.07000
C1379       C  0.42562546  0.55391078  0.89330412     0.13900
C1380       C  0.41138083  0.56303549  0.92977517    -0.20500
C1381       C  0.41581716  0.58911232  0.95290213    -0.07000
C1382       C  0.43453433  0.60691420  0.93864981     0.13900
C1383       C  0.43995483  0.63506726  0.96214797    -0.23800
H1384       H  0.46321075  0.61167961  0.89123471     0.15200
H1385       H  0.39688709  0.54950856  0.94086905     0.15200
C1386       C  0.41950868  0.52569239  0.87020638    -0.23800
H1387       H  0.45600406  0.64587132  0.94724624     0.05400
H1388       H  0.44747146  0.63303348  0.98915008     0.08600
H1389       H  0.42052742  0.64826288  0.96809634     0.08600
H1390       H  0.43834319  0.51160257  0.86528707     0.08600
H1391       H  0.41279335  0.52774079  0.84265974     0.08600
H1392       H  0.40256714  0.51574506  0.88488605     0.05400
C1393       C  0.37415278  0.65933638  0.01970579    -0.20400
C1394       C  0.36686041  0.63456273  0.99593813    -0.07000
C1395       C  0.34370984  0.63452358  0.47326413     0.13900
C1396       C  0.32815856  0.65951183  0.47780946    -0.20500
C1397       C  0.33358953  0.68374572  0.50481944    -0.07000
C1398       C  0.35714448  0.68313648  0.52500174     0.13900
C1399       C  0.36560398  0.70826220  0.55264884    -0.23800
H1400       H  0.39144955  0.65866822  0.03637973     0.15200
H1401       H  0.31062083  0.65948875  0.46142259     0.15200
C1402       C  0.33569423  0.60865896  0.44644597    -0.23800
H1403       H  0.38737625  0.70622207  0.06155545     0.05400
H1404       H  0.34949476  0.71367368  0.57734267     0.08600
H1405       H  0.36906940  0.72720659  0.03674733     0.08600
H1406       H  0.32938622  0.59262881  0.46239271     0.08600
H1407       H  0.35324744  0.60047482  0.92742414     0.08600
H1408       H  0.31797658  0.61288126  0.43100251     0.05400
N1409       N  0.90033874  0.09377414  0.49161094    -0.03600
C1410       C  0.87418709  0.10550831  0.50251644    -0.01000
C1411       C  0.86260266  0.09689481  0.03214557    -0.23900
C1412       C  0.88125791  0.07844603  0.04001892    -0.24100
C1413       C  0.90446099  0.07712168  0.01403908    -0.01100
H1414       H  0.84318357  0.10477620  0.04910433     0.12700
H1415       H  0.87929412  0.06915631  0.06436112     0.12700
N1416       N  0.62999810  0.46406297  0.44609409    -0.03600
C1417       C  0.65290516  0.44708105  0.44318645    -0.01000
C1418       C  0.66402082  0.43857532  0.40582501    -0.23900
C1419       C  0.64710166  0.45034579  0.38494896    -0.24100
C1420       C  0.62611705  0.46549639  0.41026477    -0.01100
H1421       H  0.68144967  0.42394659  0.39475938     0.12700
H1422       H  0.64913352  0.44719289  0.35443018     0.12700
Zr1423     Zr  0.78283635  0.27047991  0.06917193     2.17500
O1424       O  0.82369119  0.26075486  0.09928113    -0.51400
O1425       O  0.75687396  0.24584665  0.11248557    -0.74600
O1426       O  0.79345237  0.30751467  0.12313956    -0.81400
O1427       O  0.79714049  0.20785944  0.48640276    -0.83200
O1428       O  0.77005177  0.34766542  0.12238493    -0.78800
O1429       O  0.81209211  0.22766823  0.04137703    -0.90400
O1430       O  0.71040416  0.24966333  0.10756319    -0.76400
O1431       O  0.73991857  0.29744007  0.08645941    -0.85900
O1432       O  0.74824134  0.24338848  0.03721004    -0.85600
O1433       O  0.79050155  0.31345330  0.04879147    -0.72300
O1434       O  0.79789321  0.26510321  0.50292174    -0.84500
Zr1435     Zr  0.72645797  0.30527063  0.46810627     2.26400
Zr1436     Zr  0.74675445  0.33973625  0.06491646     2.06300
Zr1437     Zr  0.76298727  0.23812604  0.47109761     2.10000
Zr1438     Zr  0.70555240  0.27031496  0.05428889     1.78800
O1439       O  0.79350701  0.20914703  0.41934380    -0.93300
O1440       O  0.67362219  0.29642802  0.10687615    -0.41100
O1441       O  0.71879598  0.26249403  0.48734550    -0.77700
O1442       O  0.71144115  0.31287797  0.03366953    -0.96400
O1443       O  0.76018940  0.33363664  0.50007388    -0.89700
O1444       O  0.77002385  0.28018115  0.45079443    -0.92500
C1445       C  0.73117429  0.24133503  0.12194464     1.01200
C1446       C  0.81225090  0.20735754  0.01200150     1.14100
C1447       C  0.78631320  0.33331669  0.13725042     1.04900
O1448       O  0.70995838  0.35888666  0.11537194    -0.94700
O1449       O  0.71971507  0.37382372  0.04152078    -0.90400
O1450       O  0.70612307  0.35166371  0.48487675    -0.83600
C1451       C  0.70486454  0.37259195  0.51305379     1.11600
O1452       O  0.85121708  0.30693714  0.49917530    -0.96700
Zr1453     Zr  0.80341769  0.30794740  0.48286100     1.88900
O1454       O  0.74936906  0.32542465  0.41921949    -0.73300
O1455       O  0.77200796  0.38259054  0.06998546    -0.52600
O1456       O  0.82124694  0.35460429  0.49835367    -0.97300
O1457       O  0.83627678  0.28050919  0.43237271    -0.54500
O1458       O  0.79555813  0.32561868  0.42723614    -0.73800
C1459       C  0.77479205  0.33015968  0.40957711     0.98500
O1460       O  0.67888945  0.30702767  0.45107901    -0.62600
O1461       O  0.73192792  0.19962281  0.47062702    -0.57500
O1462       O  0.72130696  0.27264200  0.40876671    -0.94100
O1463       O  0.74734848  0.23392949  0.40935928    -0.92600
O1464       O  0.68563319  0.22462594  0.03832450    -0.92900
O1465       O  0.65846765  0.27366126  0.03649828    -0.91700
C1466       C  0.73199114  0.24827867  0.39350718     1.17400
H1467       H  0.74684774  0.22546039  0.04363708     0.33300
H1468       H  0.69386130  0.32337367  0.03907772     0.44200
H1469       H  0.77559177  0.27644974  0.42387981     0.37700
H1470       H  0.80501626  0.32357904  0.06161412     0.34200
H1471       H  0.66170737  0.28224257  0.11510959     0.25900
H1472       H  0.76327379  0.39509273  0.09361252     0.31900
H1473       H  0.81000324  0.36578919  0.48540591     0.37800
H1474       H  0.69687940  0.21235277  0.04970536     0.32300
H1475       H  0.72758626  0.19387917  0.44408460     0.31100
H1476       H  0.78459848  0.19093554  0.41403591     0.32800
H1477       H  0.82897793  0.28193184  0.40842183     0.31800
H1478       H  0.66099754  0.27084381  0.00858380     0.35800
H1479       H  0.67307361  0.28752311  0.44642200     0.28500
H1480       H  0.81730015  0.26269475  0.12648049     0.32700
H1481       H  0.86238539  0.31590514  0.48116854     0.35600
H1482       H  0.74398444  0.18417952  0.47413118     0.28200
H1483       H  0.66739857  0.31620784  0.47482222     0.41100
H1484       H  0.71067830  0.34688920  0.13372051     0.31100
H1485       H  0.68539928  0.30244114  0.12772459     0.38700
H1486       H  0.83334845  0.26099242  0.43402980     0.30600
H1487       H  0.79093385  0.37793531  0.07566590     0.30700
H1488       H  0.83640266  0.27618956  0.09813835     0.30900
N1489       N  0.70057900  0.17329126  0.22794678    -0.03600
C1490       C  0.69233230  0.14663264  0.21751689    -0.01000
C1491       C  0.70436739  0.12990630  0.23781122    -0.23900
C1492       C  0.71997457  0.14660882  0.26215146    -0.24100
C1493       C  0.71712137  0.17299563  0.25589059    -0.01100
H1494       H  0.69955579  0.10860591  0.23812605     0.12700
H1495       H  0.72937374  0.14091436  0.28524853     0.12700
N1496       N  0.83380797  0.38954998  0.27277708    -0.03600
C1497       C  0.85229129  0.41039401  0.27916048    -0.01000
C1498       C  0.85094195  0.42291886  0.31718464    -0.23900
C1499       C  0.83120234  0.40982569  0.33539954    -0.24100
C1500       C  0.82098233  0.38969686  0.30798836    -0.01100
H1501       H  0.86385441  0.43926827  0.33034934     0.12700
H1502       H  0.82575086  0.41361908  0.36571868     0.12700
Zr1503     Zr  0.53521644  0.05798825  0.16190801     2.17500
O1504       O  0.53326902  0.10208898  0.14240441    -0.51400
O1505       O  0.56277146  0.03073601  0.10568731    -0.74600
O1506       O  0.57886411  0.08214137  0.16845799    -0.81400
O1507       O  0.96725946  0.03502007  0.12294429    -0.83200
O1508       O  0.59365261  0.07726553  0.22416582    -0.78800
O1509       O  0.50501099  0.05982679  0.11268004    -0.90400
O1510       O  0.56681201  0.48766520  0.11188335    -0.76400
O1511       O  0.56435090  0.02871798  0.18698581    -0.85900
O1512       O  0.51570750  0.01327277  0.14988442    -0.85600
O1513       O  0.53330246  0.07885954  0.22851929    -0.72300
O1514       O  0.98835657  0.06493777  0.19375998    -0.84500
Zr1515     Zr  0.99648630  0.00889746  0.27203815     2.26400
Zr1516     Zr  0.56179544  0.04858554  0.25347159     2.06300
Zr1517     Zr  0.96968220  0.01964107  0.18133756     2.10000
Zr1518     Zr  0.54611015  0.48506732  0.17473495     1.78800
O1519       O  0.92428661  0.04400190  0.19105559    -0.93300
O1520       O  0.59535823  0.47244876  0.17346394    -0.41100
O1521       O  0.99746583  0.48895662  0.20647978    -0.77700
O1522       O  0.54307403  0.00319385  0.24152893    -0.96400
O1523       O  0.51581848  0.05422703  0.28649809    -0.89700
O1524       O  0.96728994  0.03871247  0.24804723    -0.92500
C1525       C  0.56952230  0.00481260  0.09312767     1.01200
C1526       C  0.98197031  0.04914225  0.10306148     1.14100
C1527       C  0.59583321  0.08671624  0.19393357     1.04900
O1528       O  0.60815176  0.02670739  0.24780088    -0.94700
O1529       O  0.56670430  0.03073627  0.30968773    -0.90400
O1530       O  0.52927843  0.50427351  0.31855332    -0.83600
C1531       C  0.55295658  0.01472325  0.32765882     1.11600
O1532       O  0.98183716  0.12810507  0.24423095    -0.96700
Zr1533     Zr  0.98712917  0.08329451  0.26094148     1.88900
O1534       O  0.96785775  0.03623623  0.32795040    -0.73300
O1535       O  0.57093599  0.08874815  0.30260978    -0.52600
O1536       O  0.50880233  0.12028861  0.30381513    -0.97300
O1537       O  0.93874251  0.09942967  0.26319103    -0.54500
O1538       O  0.96488102  0.08120599  0.32329657    -0.73800
C1539       C  0.95972412  0.06184409  0.34112812     0.98500
O1540       O  0.49393252  0.46955488  0.30192908    -0.62600
O1541       O  0.95587337  0.47953842  0.13525768    -0.57500
O1542       O  0.95533962  0.48050665  0.25900566    -0.94100
O1543       O  0.93800202  0.48802816  0.20638797    -0.92600
O1544       O  0.52529038  0.44730684  0.13266745    -0.88500
O1545       O  0.55411709  0.44059606  0.19112209    -0.91700
C1546       C  0.93765533  0.47612865  0.23413782     1.17400
H1547       H  0.51472306  0.00596953  0.12316394     0.33300
H1548       H  0.55469445  0.49147493  0.25164494     0.44200
H1549       H  0.94830002  0.03933781  0.25977668     0.37700
H1550       H  0.54096094  0.09711673  0.23202262     0.34200
H1551       H  0.59956528  0.45764534  0.15014902     0.25900
H1552       H  0.59142837  0.08800255  0.30320115     0.31900
H1553       H  0.99759592  0.12384515  0.32716477     0.37800
H1554       H  0.54124679  0.43713618  0.11562198     0.32300
H1555       H  0.93920753  0.48608126  0.12539750     0.31100
H1556       H  0.91444618  0.03451062  0.16950112     0.32800
H1557       H  0.92731756  0.08600865  0.27398335     0.31800
H1558       H  0.53941321  0.44026932  0.21207006     0.35800
H1559       H  0.97819728  0.46980362  0.31631333     0.28500
H1560       H  0.54913823  0.10102044  0.12252573     0.32700
H1561       H  0.97462107  0.14133229  0.26807329     0.35600
H1562       H  0.97083817  0.47712927  0.11392465     0.28200
H1563       H  0.49348197  0.45312479  0.28070206     0.41100
H1564       H  0.61775890  0.03874357  0.26774453     0.31100
H1565       H  0.60546702  0.48860596  0.16782645     0.38700
H1566       H  0.93497582  0.09584717  0.23636930     0.30600
H1567       H  0.56727850  0.10508442  0.29197647     0.30700
H1568       H  0.53822811  0.11635097  0.16424460     0.30900
C1569       C  0.86786226  0.43987524  0.23555064    -0.20400
C1570       C  0.87436295  0.41835676  0.25295252    -0.07000
C1571       C  0.90250783  0.41359917  0.25865357     0.13900
C1572       C  0.92274030  0.43212593  0.25074022    -0.20500
C1573       C  0.91579113  0.45546406  0.23712823    -0.07000
C1574       C  0.88820824  0.45852951  0.22741163     0.13900
C1575       C  0.87933965  0.48247417  0.21123988    -0.23800
H1576       H  0.84622072  0.44380295  0.23190581     0.15200
H1577       H  0.94395789  0.42888508  0.25680360     0.15200
C1578       C  0.91141809  0.39033670  0.27610664    -0.23800
H1579       H  0.85673674  0.48234192  0.20752336     0.05400
H1580       H  0.89097860  0.48109729  0.18295171     0.08600
H1581       H  0.88551128  0.00384019  0.23354558     0.08600
H1582       H  0.89390997  0.37726462  0.28248602     0.08600
H1583       H  0.92032665  0.39911962  0.30296462     0.08600
H1584       H  0.92757116  0.37671807  0.25626201     0.05400
C1585       C  0.66839679  0.11154979  0.17378923    -0.20400
C1586       C  0.66668379  0.13756423  0.19950507    -0.07000
C1587       C  0.64002030  0.14867692  0.21689367     0.13900
C1588       C  0.61661089  0.13226078  0.21177740    -0.20500
C1589       C  0.61910498  0.10513096  0.18963307    -0.07000
C1590       C  0.64491720  0.09505993  0.16896299     0.13900
C1591       C  0.64807197  0.06619056  0.14411340    -0.23800
H1592       H  0.68874556  0.10287872  0.16055465     0.15200
H1593       H  0.59654242  0.13992368  0.22719823     0.15200
C1594       C  0.63617791  0.17693516  0.24299393    -0.23800
H1595       H  0.66975441  0.06138537  0.13025605     0.05400
H1596       H  0.63381797  0.06424684  0.12165438     0.08600
H1597       H  0.64278680  0.05066591  0.16131839     0.08600
H1598       H  0.64250363  0.19269144  0.22673767     0.08600
H1599       H  0.64871332  0.17801591  0.26704175     0.08600
H1600       H  0.61405624  0.18186210  0.25491115     0.05400
C1601       C  0.72427460  0.17956681  0.16780351    -0.20400
C1602       C  0.70674674  0.19075746  0.20129281    -0.07000
C1603       C  0.69842824  0.21934406  0.20925854     0.13900
C1604       C  0.70718595  0.23550821  0.18324645    -0.20500
C1605       C  0.72468663  0.22419380  0.14999457    -0.07000
C1606       C  0.73322372  0.19582739  0.14206515     0.13900
C1607       C  0.75086810  0.18240837  0.10575039    -0.23800
H1608       H  0.73121708  0.15790477  0.16201385     0.15200
H1609       H  0.70025662  0.25719565  0.18896032     0.15200
C1610       C  0.68025586  0.23362085  0.24446061    -0.23800
H1611       H  0.75522836  0.15993319  0.10371755     0.05400
H1612       H  0.77117815  0.19262448  0.10415054     0.08600
H1613       H  0.73979402  0.18440677  0.08115168     0.08600
H1614       H  0.69177813  0.25056396  0.26111054     0.08600
H1615       H  0.67365897  0.21934502  0.26268299     0.08600
H1616       H  0.66111017  0.24269579  0.23656145     0.05400
C1617       C  0.69761530  0.20305722  0.31615945    -0.20400
C1618       C  0.71977476  0.19708810  0.28709830    -0.07000
C1619       C  0.74508298  0.21061807  0.29174770     0.13900
C1620       C  0.74785563  0.22955043  0.32603867    -0.20500
C1621       C  0.72587745  0.23477589  0.35545440    -0.07000
C1622       C  0.70028908  0.22190279  0.35024468     0.13900
C1623       C  0.67649126  0.22660371  0.38150879    -0.23800
H1624       H  0.67861572  0.19176063  0.31291379     0.15200
H1625       H  0.76769008  0.23907717  0.33078234     0.15200
C1626       C  0.76943453  0.20391238  0.26145752    -0.23800
H1627       H  0.65817637  0.21432637  0.37282976     0.05400
H1628       H  0.66976064  0.24892685  0.38914275     0.08600
H1629       H  0.68322783  0.22039328  0.40680869     0.08600
H1630       H  0.76341331  0.20856350  0.23483815     0.08600
H1631       H  0.77571128  0.18152580  0.25624578     0.08600
H1632       H  0.78777478  0.21628661  0.26973163     0.05400
C1633       C  0.82661518  0.34303992  0.17605942    -0.20400
C1634       C  0.79826002  0.34783233  0.17245135    -0.07000
C1635       C  0.78215397  0.36688198  0.20211249     0.13900
C1636       C  0.79475241  0.38049755  0.23403514    -0.20500
C1637       C  0.82319221  0.37615831  0.23748823    -0.07000
C1638       C  0.83938785  0.35716439  0.20777142     0.13900
C1639       C  0.86994198  0.35122969  0.20900459    -0.23800
H1640       H  0.83906937  0.32857477  0.15339086     0.15200
H1641       H  0.78223558  0.39475298  0.25685454     0.15200
C1642       C  0.75137329  0.37228219  0.20113428    -0.23800
H1643       H  0.87843276  0.33394380  0.18523541     0.05400
H1644       H  0.87352776  0.34519296  0.23561320     0.08600
H1645       H  0.88189451  0.36971881  0.20626458     0.08600
H1646       H  0.74046904  0.35234714  0.19698996     0.08600
H1647       H  0.74802958  0.38272778  0.17788093     0.08600
H1648       H  0.74169287  0.38605224  0.22791332     0.05400
C1649       C  0.77778293  0.37856628  0.34221893    -0.20400
C1650       C  0.80277244  0.36858674  0.31944305    -0.07000
C1651       C  0.81475998  0.34277179  0.32149610     0.13900
C1652       C  0.80372125  0.32950768  0.34960405    -0.20500
C1653       C  0.78100538  0.34145423  0.37560662    -0.07000
C1654       C  0.76673723  0.36536088  0.37054379     0.13900
C1655       C  0.74149847  0.37839968  0.39690976    -0.23800
H1656       H  0.76874346  0.39850085  0.34075465     0.15200
H1657       H  0.81395826  0.31059307  0.35285259     0.15200
C1658       C  0.84065433  0.33037916  0.29645230    -0.23800
H1659       H  0.73385385  0.39777506  0.38988248     0.05400
H1660       H  0.74678653  0.38371837  0.42655657     0.08600
H1661       H  0.72421981  0.36370562  0.39472345     0.08600
H1662       H  0.85794751  0.34493975  0.30075854     0.08600
H1663       H  0.83612859  0.32598271  0.26653563     0.08600
H1664       H  0.84766509  0.31047150  0.30260407     0.05400
C1665       C  0.60971080  0.00490401  0.04513239    -0.20400
C1666       C  0.58305006  0.99579057  0.05409165    -0.07000
C1667       C  0.57236191  0.48167473  0.02529082     0.13900
C1668       C  0.58730407  0.47233644  0.98935363    -0.20500
C1669       C  0.61537340  0.47862833  0.98244110    -0.07000
C1670       C  0.62416176  0.99521667  0.00906623     0.13900
C1671       C  0.65426466  0.01008528  0.50303429    -0.23800
H1672       H  0.61947030  0.01936884  0.06653156     0.15200
H1673       H  0.57744660  0.45903381  0.96711543     0.15200
C1674       C  0.54241501  0.47391714  0.03179752    -0.23800
H1675       H  0.66861995  0.00454939  0.52242432     0.05400
H1676       H  0.65198903  0.03308911  0.50830651     0.08600
H1677       H  0.66384089  0.00244587  0.47347650     0.08600
H1678       H  0.52876727  0.49305648  0.04138119     0.08600
H1679       H  0.54022612  0.46145350  0.05371087     0.08600
H1680       H  0.53507509  0.46138016  0.00557011     0.05400
C1681       C  0.60162488  0.00937974  0.40257260    -0.20400
C1682       C  0.60219398  0.47906045  0.39806046    -0.07000
C1683       C  0.58272804  0.46292082  0.37712757     0.13900
C1684       C  0.56511251  0.47552730  0.35683722    -0.20500
C1685       C  0.56667454  0.00502724  0.35762715    -0.07000
C1686       C  0.58462959  0.02176215  0.38108051     0.13900
C1687       C  0.58645942  0.05251252  0.38317041    -0.23800
H1688       H  0.61662886  0.02169378  0.41861970     0.15200
H1689       H  0.55126773  0.46274088  0.33922894     0.15200
C1690       C  0.58140231  0.43208121  0.37476746    -0.23800
H1691       H  0.59967486  0.06254212  0.40523660     0.05400
H1692       H  0.56528172  0.06268733  0.39034362     0.08600
H1693       H  0.59596676  0.05625263  0.35582475     0.08600
H1694       H  0.57734900  0.42815155  0.40359905     0.08600
H1695       H  0.60139829  0.42134529  0.36088911     0.08600
H1696       H  0.56449004  0.42276435  0.35808395     0.05400
C1697       C  0.68727960  0.43989400  0.48663093    -0.20400
C1698       C  0.66143055  0.43351528  0.47284204    -0.07000
C1699       C  0.64791675  0.40962768  0.47959662     0.13900
C1700       C  0.66132430  0.39188501  0.49794710    -0.20500
C1701       C  0.68832853  0.39682115  0.50847080    -0.07000
C1702       C  0.70101896  0.42166059  0.50419585     0.13900
C1703       C  0.73002997  0.42761996  0.51489214    -0.23800
H1704       H  0.69783224  0.45790749  0.48065149     0.15200
H1705       H  0.65179071  0.37262117  0.50092559     0.15200
C1706       C  0.62062378  0.40127036  0.46432551    -0.23800
H1707       H  0.73707362  0.44771490  0.50908379     0.05400
H1708       H  0.74498163  0.41089422  0.49842907     0.08600
H1709       H  0.73556098  0.42861782  0.04032763     0.08600
H1710       H  0.62259815  0.39915443  0.43318567     0.08600
H1711       H  0.60404756  0.41708377  0.47794530     0.08600
H1712       H  0.61394757  0.38107626  0.47018035     0.05400
C1713       C  0.94971693  0.08721817  0.03797111    -0.20400
C1714       C  0.93168505  0.06705372  0.02183825    -0.07000
C1715       C  0.93564527  0.03934357  0.02482081     0.13900
C1716       C  0.95474212  0.03328423  0.04871454    -0.20500
C1717       C  0.96990976  0.05441867  0.06943987    -0.07000
C1718       C  0.96897363  0.08124926  0.06171482     0.13900
C1719       C  0.98615199  0.10436467  0.08093835    -0.23800
H1720       H  0.94643233  0.10851383  0.03582899     0.15200
H1721       H  0.95630981  0.01240739  0.05340105     0.15200
C1722       C  0.91862171  0.01659541  0.00439257    -0.23800
H1723       H  0.98213242  0.12408340  0.07214006     0.05400
H1724       H  0.50661348  0.09999158  0.07610128     0.08600
H1725       H  0.98104625  0.10833582  0.11211650     0.08600
H1726       H  0.92198587  0.01548259  0.97348492     0.08600
H1727       H  0.89609301  0.02079175  0.01426625     0.08600
H1728       H  0.92469493  0.99599055  0.00926296     0.05400
C1729       C  0.94708659  0.09643576  0.40269085    -0.20400
C1730       C  0.94354252  0.06993360  0.37959851    -0.07000
C1731       C  0.92428679  0.05221742  0.39358281     0.13900
C1732       C  0.90957574  0.06133288  0.42977227    -0.20500
C1733       C  0.91373027  0.08741660  0.45310145    -0.07000
C1734       C  0.93265374  0.10522590  0.43929644     0.13900
C1735       C  0.93801676  0.13322573  0.46325458    -0.23800
H1736       H  0.96172385  0.11018417  0.39235489     0.15200
H1737       H  0.89499080  0.04773909  0.44055698     0.15200
C1738       C  0.91861957  0.02384675  0.37054468    -0.23800
H1739       H  0.95381265  0.14434853  0.44844376     0.05400
H1740       H  0.94591474  0.13082402  0.48986436     0.08600
H1741       H  0.91846695  0.14627999  0.46996584     0.08600
H1742       H  0.93761531  0.01000731  0.36603607     0.08600
H1743       H  0.91207533  0.02566644  0.34282023     0.08600
H1744       H  0.90171393  0.01374898  0.38506496     0.05400
C1745       C  0.87076462  0.15668907  0.52258520    -0.20400
C1746       C  0.86413901  0.13255781  0.49686059    -0.07000
C1747       C  0.84168855  0.13330756  0.97440386     0.13900
C1748       C  0.82571308  0.15812981  0.97992784    -0.20500
C1749       C  0.83194728  0.18259313  0.00594528    -0.07000
C1750       C  0.85656095  0.18230752  0.02413465     0.13900
C1751       C  0.86595872  0.20772300  0.05036304    -0.23800
H1752       H  0.88749316  0.15535622  0.53996200     0.15200
H1753       H  0.80742046  0.15785698  0.96487550     0.15200
C1754       C  0.83317296  0.10733677  0.94824951    -0.23800
H1755       H  0.88271751  0.20239110  0.56835748     0.05400
H1756       H  0.85073105  0.21353825  0.07599865     0.08600
H1757       H  0.86621378  0.22447824  0.54334011     0.08600
H1758       H  0.82786132  0.09120468  0.96443436     0.08600
H1759       H  0.85300387  0.10113414  0.42545430     0.08600
H1760       H  0.81468135  0.11136006  0.93408600     0.05400
N1761       N  0.90098393  0.09424619  0.99031810    -0.03600
C1762       C  0.87504728  0.10625692  0.00169413    -0.01000
C1763       C  0.86125865  0.09526642  0.53193387    -0.23900
C1764       C  0.87984746  0.07675661  0.53983882    -0.24100
C1765       C  0.90351949  0.07626880  0.51492673    -0.01100
H1766       H  0.84155157  0.10269614  0.54844473     0.12700
H1767       H  0.87749036  0.06694448  0.56368220     0.12700
N1768       N  0.63132791  0.46525814  0.94716379    -0.03600
C1769       C  0.65469838  0.44857335  0.94307896    -0.01000
C1770       C  0.66543294  0.44094050  0.90547506    -0.23900
C1771       C  0.64786586  0.45280709  0.88555623    -0.24100
C1772       C  0.62689726  0.46722891  0.91160592    -0.01100
H1773       H  0.68314734  0.42685244  0.89358869     0.12700
H1774       H  0.64956548  0.45033377  0.85513899     0.12700
Zr1775     Zr  0.78253661  0.27116478  0.56916933     2.17500
O1776       O  0.82645738  0.26388875  0.59414889    -0.51400
O1777       O  0.75721617  0.24710114  0.61362800    -0.74600
O1778       O  0.79235090  0.30733148  0.62412611    -0.81400
O1779       O  0.79583134  0.20649795  0.98646117    -0.83200
O1780       O  0.76884673  0.34754482  0.62378674    -0.78800
O1781       O  0.81044108  0.22726210  0.54392077    -0.90400
O1782       O  0.71137932  0.24575262  0.60344648    -0.76400
O1783       O  0.73925722  0.29749772  0.58680940    -0.85900
O1784       O  0.74832968  0.24363209  0.53688962    -0.85600
O1785       O  0.78941342  0.31443124  0.54934144    -0.72300
O1786       O  0.79792636  0.26367841  0.00268142    -0.84500
Zr1787     Zr  0.72719782  0.30468093  0.96719471     2.26400
Zr1788     Zr  0.74538034  0.34017829  0.56620393     2.06300
Zr1789     Zr  0.76254689  0.23726571  0.97109850     2.10000
Zr1790     Zr  0.70528359  0.27011380  0.55417051     1.78800
O1791       O  0.79455109  0.21080618  0.91887379    -0.93300
O1792       O  0.67659186  0.29574247  0.61057095    -0.41100
O1793       O  0.71875382  0.26229847  0.98730234    -0.77700
O1794       O  0.71056268  0.31294038  0.53437630    -0.96400
O1795       O  0.76140668  0.33239707  0.99882002    -0.89700
O1796       O  0.77040574  0.27894654  0.95037301    -0.92500
C1797       C  0.73192875  0.24001560  0.62039359     1.01200
C1798       C  0.81194628  0.20772179  0.51351531     1.14100
C1799       C  0.78522511  0.33307488  0.63839962     1.04900
O1800       O  0.70865079  0.35851018  0.61715702    -0.94700
O1801       O  0.71667059  0.37346957  0.54348673    -0.90400
O1802       O  0.70783684  0.35157496  0.98380861    -0.83600
C1803       C  0.70762184  0.37289399  0.01132153     1.11600
O1804       O  0.85105966  0.30360797  0.00159353    -0.96700
Zr1805     Zr  0.80430661  0.30623291  0.98223509     1.88900
O1806       O  0.75087433  0.32477882  0.91862824    -0.73300
O1807       O  0.76955284  0.38372569  0.57291966    -0.52600
O1808       O  0.82139739  0.35319706  0.99728344    -0.97300
O1809       O  0.83864210  0.27994492  0.93283154    -0.54500
O1810       O  0.79715814  0.32328153  0.92586160    -0.73800
C1811       C  0.77647096  0.32863221  0.90853231     0.98500
O1812       O  0.67992679  0.30630926  0.94905847    -0.62600
O1813       O  0.73236592  0.19800847  0.97002658    -0.57500
O1814       O  0.72250616  0.27219047  0.90739422    -0.94100
O1815       O  0.74613752  0.23242181  0.90961505    -0.92600
O1816       O  0.68142819  0.22705931  0.53387923    -0.92900
O1817       O  0.65723363  0.27630294  0.54131738    -0.91700
C1818       C  0.73207458  0.24727936  0.89286118     1.17400
H1819       H  0.74719742  0.22556687  0.54296090     0.33300
H1820       H  0.69281234  0.32313150  0.53980574     0.44200
H1821       H  0.77593346  0.27492814  0.92345493     0.37700
H1822       H  0.80377766  0.32464629  0.56242568     0.34200
H1823       H  0.66289386  0.28229994  0.61693748     0.25900
H1824       H  0.76208650  0.39493647  0.59815178     0.31900
H1825       H  0.80578481  0.36537133  0.99389120     0.37800
H1826       H  0.69220210  0.21274624  0.54227081     0.32300
H1827       H  0.73562523  0.18678400  0.94372387     0.31100
H1828       H  0.78663809  0.19216309  0.91232602     0.32800
H1829       H  0.84448175  0.29301200  0.91672850     0.31800
H1830       H  0.65849549  0.27489831  0.51366235     0.35800
H1831       H  0.67352686  0.28709346  0.94665807     0.28500
H1832       H  0.82170831  0.26410611  0.62130250     0.32700
H1833       H  0.86263227  0.31502075  0.98732112     0.35600
H1834       H  0.74096275  0.18658847  0.98531980     0.28200
H1835       H  0.66845297  0.31709634  0.97187172     0.41100
H1836       H  0.71372281  0.37789210  0.62734317     0.31100
H1837       H  0.68897845  0.29828956  0.63105756     0.38700
H1838       H  0.82781456  0.26601117  0.91682973     0.30600
H1839       H  0.78911427  0.37881700  0.57568300     0.30700
H1840       H  0.83722632  0.28074612  0.59358888     0.30900
N1841       N  0.70181752  0.17202756  0.72623347    -0.03600
C1842       C  0.69480530  0.14490177  0.71571950    -0.01000
C1843       C  0.70871800  0.12864258  0.73491758    -0.23900
C1844       C  0.72390767  0.14610291  0.75900094    -0.24100
C1845       C  0.71901942  0.17246575  0.75367204    -0.01100
H1846       H  0.70551510  0.10696581  0.73477271     0.12700
H1847       H  0.73446650  0.14071531  0.78137575     0.12700
N1848       N  0.83529943  0.38858643  0.77188925    -0.03600
C1849       C  0.85292296  0.41020191  0.77798842    -0.01000
C1850       C  0.85118073  0.42314348  0.81589982    -0.23900
C1851       C  0.83209247  0.40950212  0.83433970    -0.24100
C1852       C  0.82271349  0.38863276  0.80714639    -0.01100
H1853       H  0.86343325  0.44015572  0.82885535     0.12700
H1854       H  0.82646554  0.41352951  0.86463894     0.12700
Zr1855     Zr  0.53533850  0.05861149  0.66193745     2.17500
O1856       O  0.53364342  0.10345921  0.64448629    -0.51400
O1857       O  0.56360960  0.03227233  0.60604758    -0.74600
O1858       O  0.57964453  0.08162516  0.66789842    -0.81400
O1859       O  0.96817291  0.03466002  0.62290133    -0.83200
O1860       O  0.59458845  0.07563485  0.72300795    -0.78800
O1861       O  0.50528028  0.06028700  0.61236605    -0.90400
O1862       O  0.56580893  0.48639719  0.61035477    -0.76400
O1863       O  0.56417964  0.02905843  0.68703609    -0.85900
O1864       O  0.51572490  0.01393840  0.64930008    -0.85600
O1865       O  0.53337614  0.07923878  0.72857137    -0.72300
O1866       O  0.98919399  0.06488476  0.69307610    -0.84500
Zr1867     Zr  0.99761202  0.00964896  0.77229035     2.26400
Zr1868     Zr  0.56138944  0.04869964  0.75359740     2.06300
Zr1869     Zr  0.97093434  0.01943782  0.68105807     2.10000
Zr1870     Zr  0.54536503  0.48455495  0.67347680     1.78800
O1871       O  0.92549501  0.04308046  0.68624629    -0.93300
O1872       O  0.59399824  0.46956957  0.67174337    -0.41100
O1873       O  0.99898951  0.48891558  0.70613116    -0.77700
O1874       O  0.54255433  0.00327435  0.74078326    -0.96400
O1875       O  0.51527690  0.05429808  0.78610033    -0.89700
O1876       O  0.96833226  0.03891954  0.74762499    -0.92500
C1877       C  0.57054267  0.00644089  0.59330930     1.01200
C1878       C  0.98261967  0.04894767  0.60307075     1.14100
C1879       C  0.59703287  0.08520384  0.69285302     1.04900
O1880       O  0.60874964  0.03100287  0.75411868    -0.94700
O1881       O  0.56608513  0.02943238  0.80870860    -0.90400
O1882       O  0.53083963  0.50534964  0.81827474    -0.83600
C1883       C  0.55202721  0.01360207  0.82665759     1.11600
O1884       O  0.98490795  0.12811643  0.74172504    -0.96700
Zr1885     Zr  0.98770443  0.08366506  0.76003211     1.88900
O1886       O  0.96877424  0.03714917  0.82766072    -0.73300
O1887       O  0.56780113  0.08975737  0.80280569    -0.52600
O1888       O  0.50792238  0.12015123  0.80507130    -0.97300
O1889       O  0.93917389  0.09827428  0.75933654    -0.54500
O1890       O  0.96454620  0.08177082  0.82177993    -0.73800
C1891       C  0.95993742  0.06260207  0.84007127     0.98500
O1892       O  0.49676334  0.46912360  0.79957372    -0.62600
O1893       O  0.95983660  0.47796085  0.63347202    -0.57500
O1894       O  0.95575681  0.48028979  0.75746210    -0.94100
O1895       O  0.93876689  0.48777655  0.70456854    -0.92600
O1896       O  0.52439793  0.44653314  0.63203901    -0.88500
O1897       O  0.54893655  0.44005408  0.69138943    -0.91700
C1898       C  0.93824781  0.47591898  0.73241609     1.17400
H1899       H  0.51484168  0.00680143  0.62250770     0.33300
H1900       H  0.55567699  0.49104779  0.75004247     0.44200
H1901       H  0.94933386  0.03941995  0.75924898     0.37700
H1902       H  0.54121721  0.09741680  0.73214408     0.34200
H1903       H  0.59710786  0.45372531  0.64949066     0.25900
H1904       H  0.58810054  0.08947495  0.80509197     0.31900
H1905       H  0.01202386  0.11059281  0.82633214     0.37800
H1906       H  0.54009030  0.43713696  0.61372152     0.32300
H1907       H  0.94327231  0.48375469  0.62268140     0.31100
H1908       H  0.91503326  0.03058723  0.66779693     0.32800
H1909       H  0.92774300  0.08427043  0.76881932     0.31800
H1910       H  0.53391986  0.44123141  0.71243819     0.35800
H1911       H  0.97623096  0.46912930  0.81438951     0.28500
H1912       H  0.54948411  0.10267624  0.62464600     0.32700
H1913       H  0.97455261  0.14106710  0.76372203     0.35600
H1914       H  0.97524183  0.47598289  0.61277979     0.28200
H1915       H  0.49716137  0.45303783  0.77769118     0.41100
H1916       H  0.61196691  0.01584810  0.73106670     0.31100
H1917       H  0.60494028  0.48461101  0.66413142     0.38700
H1918       H  0.93645357  0.09503781  0.73216974     0.30600
H1919       H  0.56463180  0.10571156  0.79121893     0.30700
H1920       H  0.53881908  0.11716764  0.66675894     0.30900
C1921       C  0.86815026  0.44052787  0.73555819    -0.20400
C1922       C  0.87484439  0.41839139  0.75175171    -0.07000
C1923       C  0.90311095  0.41336667  0.75675934     0.13900
C1924       C  0.92342907  0.43161776  0.74813158    -0.20500
C1925       C  0.91633172  0.45538674  0.73556152    -0.07000
C1926       C  0.88841410  0.45938587  0.72788744     0.13900
C1927       C  0.87916541  0.48475735  0.71504906    -0.23800
H1928       H  0.84639870  0.44490245  0.73298177     0.15200
H1929       H  0.94481218  0.42800975  0.75326434     0.15200
C1930       C  0.91210239  0.39037256  0.77465735    -0.23800
H1931       H  0.85630871  0.48545294  0.71315809     0.05400
H1932       H  0.88977289  0.48464010  0.68652644     0.08600
H1933       H  0.88517424  0.00571251  0.73092111     0.08600
H1934       H  0.89466115  0.37726821  0.78115005     0.08600
H1935       H  0.92088464  0.39947651  0.80151632     0.08600
H1936       H  0.92838425  0.37671982  0.75511334     0.05400
C1937       C  0.67112822  0.10722681  0.67513297    -0.20400
C1938       C  0.66929359  0.13442572  0.69795064    -0.07000
C1939       C  0.64241202  0.14667581  0.71229119     0.13900
C1940       C  0.61871733  0.13063945  0.70678741    -0.20500
C1941       C  0.62115541  0.10259525  0.68802503    -0.07000
C1942       C  0.64743375  0.09099479  0.67065391     0.13900
C1943       C  0.65067309  0.06100525  0.64960924    -0.23800
H1944       H  0.69157531  0.09768596  0.66401662     0.15200
H1945       H  0.59833404  0.13940109  0.71978438     0.15200
C1946       C  0.63843955  0.17575591  0.73607568    -0.23800
H1947       H  0.67268621  0.05508491  0.63794306     0.05400
H1948       H  0.63760665  0.05746516  0.62572293     0.08600
H1949       H  0.64392834  0.04731982  0.66898412     0.08600
H1950       H  0.64645833  0.19045891  0.71897210     0.08600
H1951       H  0.64943370  0.17761249  0.76172511     0.08600
H1952       H  0.61607671  0.18158322  0.74563195     0.05400
C1953       C  0.72396020  0.17801843  0.66511784    -0.20400
C1954       C  0.70732243  0.18944045  0.69933622    -0.07000
C1955       C  0.70013060  0.21834652  0.70814162     0.13900
C1956       C  0.70926427  0.23460165  0.68242557    -0.20500
C1957       C  0.72573129  0.22294954  0.64843574    -0.07000
C1958       C  0.73316339  0.19434953  0.63963615     0.13900
C1959       C  0.75035505  0.18095558  0.60296606    -0.23800
H1960       H  0.73027027  0.15616903  0.65868890     0.15200
H1961       H  0.70321600  0.25654585  0.68876393     0.15200
C1962       C  0.68259257  0.23284451  0.74380058    -0.23800
H1963       H  0.75427503  0.15835200  0.60044692     0.05400
H1964       H  0.77085942  0.19082958  0.60132276     0.08600
H1965       H  0.73920139  0.18354749  0.57869187     0.08600
H1966       H  0.69505641  0.24860601  0.76101421     0.08600
H1967       H  0.67477500  0.21836722  0.76111102     0.08600
H1968       H  0.66411404  0.24344134  0.73649404     0.05400
C1969       C  0.69873433  0.20185235  0.81424446    -0.20400
C1970       C  0.72098870  0.19657882  0.78528657    -0.07000
C1971       C  0.74588991  0.21082576  0.79036966     0.13900
C1972       C  0.74831854  0.22945430  0.82509485    -0.20500
C1973       C  0.72631992  0.23385854  0.85447338    -0.07000
C1974       C  0.70103162  0.22051274  0.84869250     0.13900
C1975       C  0.67713947  0.22463946  0.87973214    -0.23800
H1976       H  0.67995549  0.19021014  0.81053350     0.15200
H1977       H  0.76789909  0.23943695  0.83010806     0.15200
C1978       C  0.77014831  0.20533439  0.75989128    -0.23800
H1979       H  0.65898700  0.21227363  0.87060010     0.05400
H1980       H  0.67021720  0.24691702  0.88788627     0.08600
H1981       H  0.68388312  0.21812970  0.90482168     0.08600
H1982       H  0.76366944  0.21029837  0.73367675     0.08600
H1983       H  0.77716217  0.18310090  0.75383755     0.08600
H1984       H  0.78811862  0.21819914  0.76843160     0.05400
C1985       C  0.82633864  0.34263676  0.67555289    -0.20400
C1986       C  0.79772934  0.34735156  0.67320817    -0.07000
C1987       C  0.78204958  0.36609647  0.70358374     0.13900
C1988       C  0.79534262  0.37965558  0.73485557    -0.20500
C1989       C  0.82402053  0.37541695  0.73704253    -0.07000
C1990       C  0.83977659  0.35664815  0.70668501     0.13900
C1991       C  0.87056070  0.35101370  0.70660015    -0.23800
H1992       H  0.83845860  0.32836187  0.65231691     0.15200
H1993       H  0.78317638  0.39375309  0.75821197     0.15200
C1994       C  0.75105713  0.37118439  0.70405664    -0.23800
H1995       H  0.87882118  0.33400453  0.68230525     0.05400
H1996       H  0.87491942  0.34478052  0.73283087     0.08600
H1997       H  0.88210022  0.36975713  0.70384405     0.08600
H1998       H  0.74038968  0.35112307  0.70026817     0.08600
H1999       H  0.74686759  0.38166369  0.68114546     0.08600
H2000       H  0.74183748  0.38478036  0.73124541     0.05400
C2001       C  0.77947199  0.37645101  0.84012170    -0.20400
C2002       C  0.80507358  0.36715661  0.81860387    -0.07000
C2003       C  0.81771215  0.34188796  0.82159846     0.13900
C2004       C  0.80646145  0.32849379  0.84945192    -0.20500
C2005       C  0.78300293  0.33987707  0.87446571    -0.07000
C2006       C  0.76827917  0.36323143  0.86834556     0.13900
C2007       C  0.74239035  0.37587971  0.89356821    -0.23800
H2008       H  0.76995287  0.39597161  0.83782464     0.15200
H2009       H  0.81708168  0.30997190  0.85333783     0.15200
C2010       C  0.84435960  0.33023187  0.79775119    -0.23800
H2011       H  0.73446028  0.39483033  0.88570194     0.05400
H2012       H  0.74704676  0.38184148  0.92345748     0.08600
H2013       H  0.72553064  0.36072208  0.89108505     0.08600
H2014       H  0.86104757  0.34545777  0.80247590     0.08600
H2015       H  0.84055664  0.32532566  0.76754590     0.08600
H2016       H  0.85183602  0.31073594  0.80461992     0.05400
C2017       C  0.61114081  0.00773371  0.54622223    -0.20400
C2018       C  0.58467100  0.99787765  0.55456549    -0.07000
C2019       C  0.57164935  0.47922337  0.52447488     0.13900
C2020       C  0.58629323  0.47006418  0.48836810    -0.20500
C2021       C  0.61372047  0.47784009  0.48069963    -0.07000
C2022       C  0.62612815  0.99833266  0.51040130     0.13900
C2023       C  0.65225169  0.00682237  0.00086521    -0.23800
H2024       H  0.62041603  0.02234402  0.56797320     0.15200
H2025       H  0.57682834  0.45580895  0.46655213     0.15200
C2026       C  0.54224102  0.47023201  0.53179513    -0.23800
H2027       H  0.66696773  0.00116580  0.01972671     0.05400
H2028       H  0.65006201  0.02983640  0.00629232     0.08600
H2029       H  0.66135116  0.99929061  0.97107645     0.08600
H2030       H  0.52785008  0.48882642  0.54149419     0.08600
H2031       H  0.54111987  0.45788078  0.55382545     0.08600
H2032       H  0.53497766  0.45716160  0.50587851     0.05400
C2033       C  0.59941583  0.00828814  0.90277400    -0.20400
C2034       C  0.60293568  0.48120859  0.89996475    -0.07000
C2035       C  0.58258506  0.46536170  0.88041547     0.13900
C2036       C  0.56534051  0.47778902  0.85942794    -0.20500
C2037       C  0.56549260  0.00367400  0.85650777    -0.07000
C2038       C  0.58258074  0.02061416  0.88106016     0.13900
C2039       C  0.58363122  0.05152639  0.88403773    -0.23800
H2040       H  0.61383038  0.02079074  0.91971337     0.15200
H2041       H  0.55067419  0.46515048  0.84314905     0.15200
C2042       C  0.58023281  0.43478068  0.87952920    -0.23800
H2043       H  0.59611988  0.06168242  0.90691506     0.05400
H2044       H  0.56216854  0.06108373  0.89053494     0.08600
H2045       H  0.59349274  0.05586697  0.85721290     0.08600
H2046       H  0.57571272  0.43154821  0.90861421     0.08600
H2047       H  0.60001463  0.42329808  0.86626043     0.08600
H2048       H  0.56320542  0.42558788  0.86297346     0.05400
C2049       C  0.69128654  0.43988968  0.98296787    -0.20400
C2050       C  0.66442652  0.43462416  0.97178210    -0.07000
C2051       C  0.65049148  0.41142339  0.98020215     0.13900
C2052       C  0.66419063  0.39340727  0.99785042    -0.20500
C2053       C  0.69175931  0.39745570  0.00642036    -0.07000
C2054       C  0.70511869  0.42156743  0.00035827     0.13900
C2055       C  0.73460225  0.42682602  0.00957468    -0.23800
H2056       H  0.70222661  0.45728457  0.97561879     0.15200
H2057       H  0.65417376  0.37466152  0.00212672     0.15200
C2058       C  0.62223889  0.40399888  0.96745772    -0.23800
H2059       H  0.74212070  0.44637532  0.00243822     0.05400
H2060       H  0.74885766  0.40941088  0.99334277     0.08600
H2061       H  0.73041336  0.42866961  0.54557835     0.08600
H2062       H  0.62283865  0.40180638  0.93639393     0.08600
H2063       H  0.60649655  0.42033548  0.98228667     0.08600
H2064       H  0.61536549  0.38406922  0.97401770     0.05400
C2065       C  0.94842540  0.08705128  0.53978250    -0.20400
C2066       C  0.93070702  0.06661905  0.52349014    -0.07000
C2067       C  0.93531204  0.03887063  0.52593082     0.13900
C2068       C  0.95488618  0.03295015  0.54930210    -0.20500
C2069       C  0.97006082  0.05421250  0.56981380    -0.07000
C2070       C  0.96831977  0.08116509  0.56271190     0.13900
C2071       C  0.98545130  0.10441043  0.58168783    -0.23800
H2072       H  0.94457326  0.10838423  0.53821592     0.15200
H2073       H  0.95696489  0.01201105  0.55362365     0.15200
C2074       C  0.91873850  0.01585466  0.50517243    -0.23800
H2075       H  0.98089049  0.12418101  0.57331468     0.05400
H2076       H  0.50634628  0.10084142  0.57600737     0.08600
H2077       H  0.98086925  0.10811594  0.61291594     0.08600
H2078       H  0.92224788  0.01485251  0.47430083     0.08600
H2079       H  0.89613428  0.01964374  0.51477763     0.08600
H2080       H  0.92510706  0.99531584  0.50999023     0.05400
C2081       C  0.94737779  0.09715097  0.90138141    -0.20400
C2082       C  0.94365661  0.07074272  0.87827932    -0.07000
C2083       C  0.92415342  0.05314908  0.89196012     0.13900
C2084       C  0.90968206  0.06210128  0.92829482    -0.20500
C2085       C  0.91412456  0.08803410  0.95174865    -0.07000
C2086       C  0.93287069  0.10596976  0.93786849     0.13900
C2087       C  0.93771646  0.13427674  0.96136203    -0.23800
H2088       H  0.96204506  0.11086875  0.89102246     0.15200
H2089       H  0.89502208  0.04854988  0.93903020     0.15200
C2090       C  0.91795207  0.02515179  0.86835221    -0.23800
H2091       H  0.95412403  0.14503556  0.94700235     0.05400
H2092       H  0.94443863  0.13254954  0.98892558     0.08600
H2093       H  0.91824185  0.14734175  0.96612432     0.08600
H2094       H  0.93665557  0.01089811  0.86351303     0.08600
H2095       H  0.91157108  0.02753347  0.84077161     0.08600
H2096       H  0.90074697  0.01522722  0.88257689     0.05400
C2097       C  0.87256177  0.15733843  0.01828272    -0.20400
C2098       C  0.86483381  0.13270776  0.99466748    -0.07000
C2099       C  0.84205164  0.13383994  0.47494509     0.13900
C2100       C  0.82611423  0.15874229  0.48054631    -0.20500
C2101       C  0.83133693  0.18269921  0.50815555    -0.07000
C2102       C  0.85477689  0.18173854  0.52851450     0.13900
C2103       C  0.86298247  0.20658364  0.55692392    -0.23800
H2104       H  0.89017619  0.15649201  0.03435149     0.15200
H2105       H  0.80867292  0.15895889  0.46404952     0.15200
C2106       C  0.83467789  0.10848604  0.44664202    -0.23800
H2107       H  0.88656583  0.20394797  0.05987743     0.05400
H2108       H  0.84648666  0.21196310  0.58119344     0.08600
H2109       H  0.86799088  0.22515823  0.03569635     0.08600
H2110       H  0.82867855  0.09164031  0.46126252     0.08600
H2111       H  0.85068804  0.09924251  0.92602780     0.08600
H2112       H  0.81695912  0.11296419  0.43136885     0.05400
N2113       N  0.90129766  0.59479403  0.49194833    -0.03600
C2114       C  0.87520751  0.60647865  0.50322766    -0.01000
C2115       C  0.86099708  0.59487717  0.03173820    -0.23900
C2116       C  0.87931004  0.57596686  0.03920170    -0.24100
C2117       C  0.90307837  0.57559874  0.01449899    -0.01100
H2118       H  0.84122930  0.60222645  0.04812612     0.12700
H2119       H  0.87667126  0.56568540  0.06257014     0.12700
N2120       N  0.63047556  0.96546951  0.44746614    -0.03600
C2121       C  0.65368190  0.94870314  0.44371023    -0.01000
C2122       C  0.66436747  0.94076786  0.40609425    -0.23900
C2123       C  0.64683191  0.95256666  0.38598097    -0.24100
C2124       C  0.62592601  0.96719950  0.41194334    -0.01100
H2125       H  0.68183736  0.92634106  0.39430650     0.12700
H2126       H  0.64838229  0.94971619  0.35551748     0.12700
Zr2127     Zr  0.78389981  0.77125121  0.06836319     2.17500
O2128       O  0.82742727  0.76351577  0.09397527    -0.51400
O2129       O  0.75882357  0.74696666  0.11264849    -0.74600
O2130       O  0.79293914  0.80790181  0.12325664    -0.81400
O2131       O  0.79957089  0.70935094  0.48534565    -0.83200
O2132       O  0.76865952  0.84762123  0.12253549    -0.78800
O2133       O  0.81178443  0.72732851  0.04384581    -0.90400
O2134       O  0.71260908  0.74744546  0.10468907    -0.76400
O2135       O  0.74005787  0.79660072  0.08561183    -0.85900
O2136       O  0.75038931  0.74320630  0.03545267    -0.85600
O2137       O  0.78999414  0.81465612  0.04877676    -0.72300
O2138       O  0.79832332  0.76567523  0.50247287    -0.84500
Zr2139     Zr  0.72658954  0.80532755  0.46749989     2.26400
Zr2140     Zr  0.74529785  0.83935550  0.06488345     2.06300
Zr2141     Zr  0.76366268  0.73825069  0.47076347     2.10000
Zr2142     Zr  0.70680366  0.76865296  0.05222776     1.78800
O2143       O  0.79378297  0.71028831  0.41760326    -0.93300
O2144       O  0.67504431  0.79600322  0.10403576    -0.41100
O2145       O  0.71921784  0.76239606  0.48678240    -0.77700
O2146       O  0.71133523  0.81142595  0.03215503    -0.96400
O2147       O  0.76012697  0.83377839  0.49960321    -0.89700
O2148       O  0.77024877  0.78030028  0.45026753    -0.92500
C2149       C  0.73336800  0.74092759  0.12069698     1.01200
C2150       C  0.81488792  0.70879274  0.01240105     1.14100
C2151       C  0.78525878  0.83355372  0.13739961     1.04900
O2152       O  0.70751640  0.85526151  0.11523801    -0.94700
O2153       O  0.71653090  0.87251732  0.04197970    -0.90400
O2154       O  0.70663896  0.85201980  0.48498960    -0.83600
C2155       C  0.70540980  0.87306431  0.51303213     1.11600
O2156       O  0.85094472  0.80798865  0.49993857    -0.96700
Zr2157     Zr  0.80348571  0.80848637  0.48229414     1.88900
O2158       O  0.74956918  0.82557458  0.41851527    -0.73300
O2159       O  0.76735934  0.88401090  0.07172618    -0.52600
O2160       O  0.81801433  0.85640123  0.49726061    -0.97300
O2161       O  0.83851414  0.78293721  0.43323167    -0.54500
O2162       O  0.79584217  0.82494429  0.42572309    -0.73800
C2163       C  0.77505122  0.82981862  0.40834649     0.98500
O2164       O  0.67955506  0.80732925  0.44853601    -0.62600
O2165       O  0.73531544  0.69818167  0.47353018    -0.57500
O2166       O  0.72119394  0.77261048  0.40834638    -0.94100
O2167       O  0.74597197  0.73332962  0.40990187    -0.92600
O2168       O  0.68741283  0.72267040  0.03784994    -0.92900
O2169       O  0.65915344  0.77077651  0.03583616    -0.91700
C2170       C  0.73110055  0.74787173  0.39362891     1.17400
H2171       H  0.74953085  0.72521866  0.04177641     0.33300
H2172       H  0.69338507  0.82124825  0.03732223     0.44200
H2173       H  0.77566590  0.77636543  0.42330453     0.37700
H2174       H  0.80405828  0.82524012  0.06205944     0.34200
H2175       H  0.66175336  0.78251998  0.11131602     0.25900
H2176       H  0.76058560  0.89447812  0.09765144     0.31900
H2177       H  0.82882016  0.85893973  0.47373630     0.37800
H2178       H  0.68494457  0.71900430  0.01056958     0.32300
H2179       H  0.72164010  0.69850342  0.45510050     0.31100
H2180       H  0.78441313  0.69242776  0.41073203     0.32800
H2181       H  0.84147591  0.79454895  0.41435961     0.31800
H2182       H  0.66111988  0.76739086  0.00786379     0.35800
H2183       H  0.67252863  0.78848047  0.44761925     0.28500
H2184       H  0.82221978  0.76343290  0.12094839     0.32700
H2185       H  0.86128188  0.82076235  0.48656738     0.35600
H2186       H  0.74791568  0.68186215  0.46169888     0.28200
H2187       H  0.66806484  0.81919660  0.47047665     0.41100
H2188       H  0.70879435  0.87573839  0.12190912     0.31100
H2189       H  0.68639697  0.80084858  0.12556698     0.38700
H2190       H  0.82887253  0.76655100  0.42025027     0.30600
H2191       H  0.78738460  0.87974050  0.07266358     0.30700
H2192       H  0.83818375  0.78046384  0.09416318     0.30900
N2193       N  0.70154531  0.67278049  0.22590041    -0.03600
C2194       C  0.69450271  0.64567516  0.21501441    -0.01000
C2195       C  0.70689824  0.62955646  0.23584713    -0.23900
C2196       C  0.72111824  0.64704823  0.26119067    -0.24100
C2197       C  0.71731174  0.67328213  0.25488670    -0.01100
H2198       H  0.70306383  0.60801951  0.23592044     0.12700
H2199       H  0.73032262  0.64181024  0.28472130     0.12700
N2200       N  0.83419725  0.88973428  0.27165102    -0.03600
C2201       C  0.85252242  0.91076770  0.27795822    -0.01000
C2202       C  0.85126935  0.92317993  0.31601064    -0.23900
C2203       C  0.83182454  0.90980340  0.33430508    -0.24100
C2204       C  0.82167845  0.88960055  0.30693213    -0.01100
H2205       H  0.86410575  0.93961026  0.32914791     0.12700
H2206       H  0.82651025  0.91348531  0.36463748     0.12700
Zr2207     Zr  0.53590551  0.55877158  0.16232553     2.17500
O2208       O  0.53192763  0.60391455  0.14617516    -0.51400
O2209       O  0.56434991  0.53262519  0.10624969    -0.74600
O2210       O  0.57971327  0.58240928  0.16799424    -0.81400
O2211       O  0.96584351  0.53405510  0.12386033    -0.83200
O2212       O  0.59483614  0.57656259  0.22309520    -0.78800
O2213       O  0.50689216  0.55833113  0.11131630    -0.90400
O2214       O  0.56493087  0.98588813  0.11180780    -0.76400
O2215       O  0.56514427  0.52985973  0.18778720    -0.85900
O2216       O  0.51709502  0.51384771  0.14967506    -0.85600
O2217       O  0.53339181  0.57970527  0.22901867    -0.72300
O2218       O  0.98730835  0.56469438  0.19387690    -0.84500
Zr2219     Zr  0.99591342  0.50956415  0.27292855     2.26400
Zr2220     Zr  0.56181951  0.54963382  0.25427762     2.06300
Zr2221     Zr  0.96868278  0.51939419  0.18233516     2.10000
Zr2222     Zr  0.54461936  0.98415694  0.17493830     1.78800
O2223       O  0.92335518  0.54343500  0.18834383    -0.93300
O2224       O  0.59358769  0.97079541  0.17445555    -0.41100
O2225       O  0.99838174  0.98895482  0.20523329    -0.77700
O2226       O  0.54361769  0.50394980  0.24149730    -0.96400
O2227       O  0.51545034  0.55493406  0.28623148    -0.89700
O2228       O  0.96646861  0.53912946  0.24887273    -0.92500
C2229       C  0.57150791  0.50680905  0.09354739     1.01200
C2230       C  0.98051057  0.54785284  0.10354749     1.14100
C2231       C  0.59716203  0.58605991  0.19283435     1.04900
O2232       O  0.60883025  0.53104737  0.25479505    -0.94700
O2233       O  0.56682989  0.53013731  0.30902881    -0.90400
O2234       O  0.52917863  0.00486411  0.31941665    -0.83600
C2235       C  0.55314539  0.51391136  0.32665790     1.11600
O2236       O  0.98327789  0.62861200  0.24359705    -0.96700
Zr2237     Zr  0.98640579  0.58371839  0.26072083     1.88900
O2238       O  0.96741271  0.53732432  0.32853422    -0.73300
O2239       O  0.56916609  0.59021353  0.30377723    -0.52600
O2240       O  0.50579821  0.62030045  0.30636105    -0.97300
O2241       O  0.93835436  0.60009173  0.26087200    -0.54500
O2242       O  0.96365817  0.58199812  0.32267614    -0.73800
C2243       C  0.95890451  0.56289096  0.34100526     0.98500
O2244       O  0.49506386  0.96943549  0.30278687    -0.62600
O2245       O  0.95527265  0.98096512  0.13380739    -0.57500
O2246       O  0.95598869  0.98010420  0.25789719    -0.94100
O2247       O  0.93980130  0.98702189  0.20422560    -0.92600
O2248       O  0.52567556  0.94545961  0.13219429    -0.88500
O2249       O  0.54936976  0.94003725  0.19360670    -0.91700
C2250       C  0.93887144  0.97546976  0.23238942     1.17400
H2251       H  0.51645346  0.50654208  0.12287006     0.33300
H2252       H  0.55413796  0.99076914  0.25177518     0.44200
H2253       H  0.94755983  0.53985631  0.26087076     0.37700
H2254       H  0.54101748  0.59800004  0.23274864     0.34200
H2255       H  0.59802007  0.95663143  0.15052227     0.25900
H2256       H  0.55875471  0.58673878  0.32704127     0.31900
H2257       H  0.99219287  0.62907093  0.32339533     0.37800
H2258       H  0.54218330  0.93553495  0.11610719     0.32300
H2259       H  0.93852816  0.98816613  0.12484145     0.31100
H2260       H  0.91457341  0.54295298  0.21393949     0.32800
H2261       H  0.92656904  0.58706531  0.27196503     0.31800
H2262       H  0.53699936  0.94240734  0.21762568     0.35800
H2263       H  0.97786393  0.96856207  0.31413612     0.28500
H2264       H  0.54831601  0.60461196  0.12770865     0.32700
H2265       H  0.97284248  0.64136058  0.26573514     0.35600
H2266       H  0.96990783  0.97859638  0.11207949     0.28200
H2267       H  0.49447659  0.95293478  0.28170622     0.41100
H2268       H  0.61074487  0.51406974  0.23416864     0.31100
H2269       H  0.60404051  0.98716671  0.17035971     0.38700
H2270       H  0.93505918  0.59599112  0.23385276     0.30600
H2271       H  0.58906764  0.58836867  0.30778829     0.30700
H2272       H  0.53537222  0.61768976  0.16937153     0.30900
C2273       C  0.86831307  0.94105491  0.23550262    -0.20400
C2274       C  0.87461609  0.91883188  0.25176146    -0.07000
C2275       C  0.90283145  0.91332743  0.25659274     0.13900
C2276       C  0.92344323  0.93135774  0.24815323    -0.20500
C2277       C  0.91675146  0.95515181  0.23542676    -0.07000
C2278       C  0.88897030  0.95943454  0.22743352     0.13900
C2279       C  0.88034509  0.98456086  0.21356003    -0.23800
H2280       H  0.84664458  0.94577043  0.23290037     0.15200
H2281       H  0.94475097  0.92748953  0.25337945     0.15200
C2282       C  0.91151914  0.88988751  0.27385281    -0.23800
H2283       H  0.85755055  0.98551275  0.21131151     0.05400
H2284       H  0.89123453  0.98379562  0.18498987     0.08600
H2285       H  0.88331607  0.50248916  0.23056972     0.08600
H2286       H  0.89381412  0.87721766  0.28074603     0.08600
H2287       H  0.92089216  0.89848243  0.30041254     0.08600
H2288       H  0.92725481  0.87594275  0.25370161     0.05400
C2289       C  0.67108401  0.60812341  0.17380445    -0.20400
C2290       C  0.66927124  0.63540271  0.19641310    -0.07000
C2291       C  0.64239786  0.64773884  0.21047321     0.13900
C2292       C  0.61874344  0.63157467  0.20578079    -0.20500
C2293       C  0.62121060  0.60343219  0.18757651    -0.07000
C2294       C  0.64736013  0.59188843  0.16958963     0.13900
C2295       C  0.65040167  0.56203859  0.14793523    -0.23800
H2296       H  0.69151782  0.59854820  0.16269524     0.15200
H2297       H  0.59839841  0.64038088  0.21887427     0.15200
C2298       C  0.63843986  0.67711072  0.23320617    -0.23800
H2299       H  0.67231620  0.55618325  0.13571093     0.05400
H2300       H  0.63704005  0.55885243  0.12436859     0.08600
H2301       H  0.64388452  0.54806658  0.16700037     0.08600
H2302       H  0.64683581  0.69132597  0.21555513     0.08600
H2303       H  0.64908990  0.67939783  0.25920543     0.08600
H2304       H  0.61605606  0.68317567  0.24214396     0.05400
C2305       C  0.72541965  0.67907140  0.16582148    -0.20400
C2306       C  0.70800228  0.69034726  0.19939963    -0.07000
C2307       C  0.70056435  0.71920001  0.20791753     0.13900
C2308       C  0.71007462  0.73549739  0.18242596    -0.20500
C2309       C  0.72718430  0.72398375  0.14895124    -0.07000
C2310       C  0.73502333  0.69546104  0.14056644     0.13900
C2311       C  0.75288893  0.68214226  0.10441908    -0.23800
H2312       H  0.73188091  0.65726711  0.15963729     0.15200
H2313       H  0.70373684  0.75735994  0.18846961     0.15200
C2314       C  0.68227308  0.73360667  0.24293546    -0.23800
H2315       H  0.75685747  0.65956326  0.10203970     0.05400
H2316       H  0.77336002  0.69213300  0.10350647     0.08600
H2317       H  0.74225128  0.68462504  0.07966638     0.08600
H2318       H  0.69419669  0.74969824  0.26049446     0.08600
H2319       H  0.67438024  0.71917969  0.26026746     0.08600
H2320       H  0.66386757  0.74379105  0.23480064     0.05400
C2321       C  0.69700756  0.70278592  0.31529588    -0.20400
C2322       C  0.71912169  0.69766388  0.28610376    -0.07000
C2323       C  0.74400509  0.71196120  0.29093754     0.13900
C2324       C  0.74658897  0.73049479  0.32565045    -0.20500
C2325       C  0.72494647  0.73442406  0.35545093    -0.07000
C2326       C  0.69967009  0.72095819  0.35002592     0.13900
C2327       C  0.67630638  0.72427561  0.38171115    -0.23800
H2328       H  0.67820720  0.69114987  0.31165195     0.15200
H2329       H  0.76611984  0.74064560  0.33038667     0.15200
C2330       C  0.76819633  0.70644241  0.26033593    -0.23800
H2331       H  0.65816454  0.71180001  0.37281557     0.05400
H2332       H  0.66910955  0.74644795  0.39086173     0.08600
H2333       H  0.68373425  0.71731488  0.40610289     0.08600
H2334       H  0.76170452  0.71149668  0.23418932     0.08600
H2335       H  0.77513789  0.68418264  0.25417654     0.08600
H2336       H  0.78624162  0.71920611  0.26883165     0.05400
C2337       C  0.82588347  0.84350353  0.17524091    -0.20400
C2338       C  0.79740322  0.84822352  0.17232277    -0.07000
C2339       C  0.78157807  0.86729550  0.20221961     0.13900
C2340       C  0.79458273  0.88093096  0.23378815    -0.20500
C2341       C  0.82315404  0.87656982  0.23658043    -0.07000
C2342       C  0.83904486  0.85763363  0.20652938     0.13900
C2343       C  0.86970627  0.85181097  0.20693836    -0.23800
H2344       H  0.83814598  0.82907922  0.15231666     0.15200
H2345       H  0.78229317  0.89518753  0.25684827     0.15200
C2346       C  0.75074746  0.87274298  0.20179436    -0.23800
H2347       H  0.87803296  0.83467710  0.18285352     0.05400
H2348       H  0.87370319  0.84562526  0.23331884     0.08600
H2349       H  0.88143582  0.87041929  0.20411824     0.08600
H2350       H  0.73978627  0.85284719  0.19806508     0.08600
H2351       H  0.74716444  0.88302688  0.17846328     0.08600
H2352       H  0.74134746  0.88666839  0.22861746     0.05400
C2353       C  0.77837555  0.87812520  0.34066506    -0.20400
C2354       C  0.80358752  0.86834798  0.31835159    -0.07000
C2355       C  0.81570529  0.84267038  0.32075674     0.13900
C2356       C  0.80439535  0.82927211  0.34861165    -0.20500
C2357       C  0.78137587  0.84102696  0.37422327    -0.07000
C2358       C  0.76716195  0.86490027  0.36890518     0.13900
C2359       C  0.74185551  0.87800611  0.39504383    -0.23800
H2360       H  0.76927181  0.89797986  0.33898281     0.15200
H2361       H  0.81470043  0.81045579  0.35207943     0.15200
C2362       C  0.84198560  0.83058202  0.29636807    -0.23800
H2363       H  0.73423433  0.89729968  0.38776937     0.05400
H2364       H  0.74706244  0.88350304  0.42472828     0.08600
H2365       H  0.72459426  0.86329602  0.39289551     0.08600
H2366       H  0.85902934  0.84540932  0.30099993     0.08600
H2367       H  0.83789434  0.82602355  0.26627385     0.08600
H2368       H  0.84912533  0.81082680  0.30284086     0.05400
C2369       C  0.61306321  0.50609258  0.04722961    -0.20400
C2370       C  0.58566871  0.49820617  0.05473783    -0.07000
C2371       C  0.56986149  0.97773879  0.02585499     0.13900
C2372       C  0.58445984  0.96782944  0.98981393    -0.20500
C2373       C  0.61186538  0.97552617  0.98163873    -0.07000
C2374       C  0.62801840  0.49667615  0.01136507     0.13900
C2375       C  0.65373012  0.50933987  0.50057400    -0.23800
H2376       H  0.62300331  0.51935193  0.06962830     0.15200
H2377       H  0.57481927  0.95344255  0.96831606     0.15200
C2378       C  0.54031089  0.96924949  0.03363695    -0.23800
H2379       H  0.66851741  0.50363855  0.51931207     0.05400
H2380       H  0.65132205  0.53235933  0.50631872     0.08600
H2381       H  0.66282246  0.50199142  0.47072951     0.08600
H2382       H  0.52615103  0.98805702  0.04269352     0.08600
H2383       H  0.53898576  0.95747022  0.05631377     0.08600
H2384       H  0.53290012  0.95581364  0.00810130     0.05400
C2385       C  0.60208408  0.50778868  0.40075967    -0.20400
C2386       C  0.60156432  0.98072339  0.40053036    -0.07000
C2387       C  0.58187600  0.96454930  0.38003508     0.13900
C2388       C  0.56430688  0.97700883  0.35949149    -0.20500
C2389       C  0.56709796  0.50374556  0.35595977    -0.07000
C2390       C  0.58488378  0.52038392  0.37977595     0.13900
C2391       C  0.58620106  0.55128547  0.38289940    -0.23800
H2392       H  0.61693420  0.52006009  0.41716355     0.15200
H2393       H  0.55029302  0.96415711  0.34226224     0.15200
C2394       C  0.58038145  0.93375993  0.37808671    -0.23800
H2395       H  0.59906603  0.56120780  0.40545793     0.05400
H2396       H  0.56484763  0.56106691  0.38998026     0.08600
H2397       H  0.59581266  0.55561657  0.35595170     0.08600
H2398       H  0.57610464  0.93000189  0.40695894     0.08600
H2399       H  0.60038322  0.92288185  0.36450917     0.08600
H2400       H  0.56352387  0.92439227  0.36132567     0.05400
C2401       C  0.68813216  0.94073632  0.48700244    -0.20400
C2402       C  0.66249189  0.93433978  0.47250236    -0.07000
C2403       C  0.64911163  0.91014160  0.47831254     0.13900
C2404       C  0.66229105  0.89230377  0.49673146    -0.20500
C2405       C  0.68902203  0.89734606  0.50818109    -0.07000
C2406       C  0.70162292  0.92242802  0.50478834     0.13900
C2407       C  0.73016449  0.92876007  0.51709579    -0.23800
H2408       H  0.69860547  0.95900606  0.48181761     0.15200
H2409       H  0.65280116  0.87290542  0.49911814     0.15200
C2410       C  0.62223916  0.90155227  0.46195110    -0.23800
H2411       H  0.73723970  0.94896672  0.51172389     0.05400
H2412       H  0.74560140  0.91223219  0.50136190     0.08600
H2413       H  0.72705174  0.92876984  0.04735090     0.08600
H2414       H  0.62484053  0.89956581  0.43083168     0.08600
H2415       H  0.60536468  0.91716101  0.47506498     0.08600
H2416       H  0.61557662  0.88123086  0.46736905     0.05400
C2417       C  0.94895706  0.58476579  0.03670019    -0.20400
C2418       C  0.93002170  0.56495791  0.02231564    -0.07000
C2419       C  0.93317206  0.53747888  0.02666905     0.13900
C2420       C  0.95231740  0.53158654  0.05053183    -0.20500
C2421       C  0.96827407  0.55264077  0.06988935    -0.07000
C2422       C  0.96804007  0.57903975  0.06078337     0.13900
C2423       C  0.98564432  0.60211664  0.07907810    -0.23800
H2424       H  0.94649592  0.60579941  0.03300335     0.15200
H2425       H  0.95336200  0.51097812  0.05625070     0.15200
C2426       C  0.91555452  0.51476964  0.00740042    -0.23800
H2427       H  0.98213334  0.62150510  0.06924033     0.05400
H2428       H  0.51130237  0.59669743  0.07340251     0.08600
H2429       H  0.98038905  0.60692920  0.11027928     0.08600
H2430       H  0.91898631  0.51270936  0.97629771     0.08600
H2431       H  0.89309887  0.51958609  0.01714379     0.08600
H2432       H  0.92107457  0.49438181  0.01341594     0.05400
C2433       C  0.94680713  0.59771063  0.40229313    -0.20400
C2434       C  0.94283769  0.57127427  0.37932281    -0.07000
C2435       C  0.92320893  0.55389896  0.39318783     0.13900
C2436       C  0.90922964  0.56284160  0.42977045    -0.20500
C2437       C  0.91407779  0.58866052  0.45321403    -0.07000
C2438       C  0.93262613  0.60660203  0.43900350     0.13900
C2439       C  0.93761299  0.63491310  0.46244564    -0.23800
H2440       H  0.96143958  0.61135184  0.39169328     0.15200
H2441       H  0.89455788  0.54938336  0.44068791     0.15200
C2442       C  0.91618961  0.52623541  0.36944504    -0.23800
H2443       H  0.95323187  0.64604122  0.44734851     0.05400
H2444       H  0.94547489  0.63303118  0.48931377     0.08600
H2445       H  0.91788244  0.64771099  0.46875571     0.08600
H2446       H  0.93458096  0.51154062  0.36387707     0.08600
H2447       H  0.90949758  0.52908632  0.34223279     0.08600
H2448       H  0.89891452  0.51655390  0.38391277     0.05400
C2449       C  0.87088950  0.65744445  0.52548260    -0.20400
C2450       C  0.86534500  0.63373637  0.49824941    -0.07000
C2451       C  0.84267498  0.63426053  0.97547439     0.13900
C2452       C  0.82765085  0.65956410  0.98042574    -0.20500
C2453       C  0.83352325  0.68345132  0.00766088    -0.07000
C2454       C  0.85642594  0.68192121  0.02871890     0.13900
C2455       C  0.86477470  0.70651657  0.05738473    -0.23800
H2456       H  0.88657323  0.65571672  0.54426147     0.15200
H2457       H  0.81032672  0.66019150  0.96383518     0.15200
C2458       C  0.83455559  0.60895043  0.94770813    -0.23800
H2459       H  0.88076452  0.70224215  0.57445401     0.05400
H2460       H  0.84804169  0.71214417  0.08131640     0.08600
H2461       H  0.86637673  0.72509971  0.54872064     0.08600
H2462       H  0.82808439  0.59247546  0.96278699     0.08600
H2463       H  0.85786945  0.60357551  0.42453769     0.08600
H2464       H  0.81691978  0.61373905  0.93249893     0.05400
N2465       N  0.90029356  0.59363677  0.99181459    -0.03600
C2466       C  0.87424719  0.60546671  0.00287440    -0.01000
C2467       C  0.86220604  0.59565267  0.53202412    -0.23900
C2468       C  0.88074224  0.57680004  0.53920632    -0.24100
C2469       C  0.90443459  0.57670923  0.51447641    -0.01100
H2470       H  0.84248746  0.60285585  0.54863504     0.12700
H2471       H  0.87836166  0.56651189  0.56258373     0.12700
N2472       N  0.62766435  0.96231395  0.94637496    -0.03600
C2473       C  0.65122121  0.94603458  0.94233312    -0.01000
C2474       C  0.66316586  0.94027526  0.90522361    -0.23900
C2475       C  0.64616167  0.95315486  0.88563342    -0.24100
C2476       C  0.62434262  0.96620627  0.91141708    -0.01100
H2477       H  0.68141892  0.92694438  0.89334343     0.12700
H2478       H  0.64873706  0.95213440  0.85550358     0.12700
Zr2479     Zr  0.78330550  0.77188934  0.56893217     2.17500
O2480       O  0.82793981  0.76562474  0.59269580    -0.51400
O2481       O  0.75848214  0.74722605  0.61308683    -0.74600
O2482       O  0.79261631  0.80823407  0.62430027    -0.81400
O2483       O  0.80185359  0.70987695  0.98393109    -0.83200
O2484       O  0.76991784  0.84855239  0.62245022    -0.78800
O2485       O  0.81106740  0.72790885  0.54417701    -0.90400
O2486       O  0.71238446  0.74694501  0.60432849    -0.76400
O2487       O  0.73967417  0.79763682  0.58657904    -0.85900
O2488       O  0.74931026  0.74400473  0.53666761    -0.85600
O2489       O  0.78973266  0.81507961  0.54884339    -0.72300
O2490       O  0.79969830  0.76550641  0.00224996    -0.84500
Zr2491     Zr  0.72762273  0.80414792  0.96606555     2.26400
Zr2492     Zr  0.74541213  0.84027783  0.56577208     2.06300
Zr2493     Zr  0.76530512  0.73795102  0.96974985     2.10000
Zr2494     Zr  0.70597110  0.76985306  0.55370553     1.78800
O2495       O  0.79280234  0.70594299  0.91765351    -0.93300
O2496       O  0.67414509  0.79324623  0.60829437    -0.41100
O2497       O  0.72055351  0.76124997  0.98535497    -0.77700
O2498       O  0.71076011  0.81277927  0.53384693    -0.96400
O2499       O  0.76051257  0.83301674  0.99894030    -0.89700
O2500       O  0.77174723  0.78007216  0.94938730    -0.92500
C2501       C  0.73310658  0.74061889  0.62052182     1.01200
C2502       C  0.81358050  0.70888699  0.51319182     1.14100
C2503       C  0.78584914  0.83418641  0.63781035     1.04900
O2504       O  0.70815685  0.85652160  0.61676916    -0.94700
O2505       O  0.71706186  0.87395691  0.54354894    -0.90400
O2506       O  0.70633332  0.85023120  0.98342264    -0.83600
C2507       C  0.70474460  0.87130257  0.01145425     1.11600
O2508       O  0.85167019  0.81401954  0.00060143    -0.96700
Zr2509     Zr  0.80435274  0.80853626  0.98248866     1.88900
O2510       O  0.75097488  0.82547005  0.91848055    -0.73300
O2511       O  0.76713342  0.88512899  0.57285395    -0.52600
O2512       O  0.81824567  0.85670743  0.99710185    -0.97300
O2513       O  0.83900738  0.78006867  0.93569865    -0.54500
O2514       O  0.79727390  0.82494871  0.92581416    -0.73800
C2515       C  0.77643700  0.83004743  0.90865712     0.98500
O2516       O  0.68050969  0.80471810  0.94703220    -0.62600
O2517       O  0.73514322  0.69943867  0.97387661    -0.57500
O2518       O  0.72284026  0.77115445  0.90682257    -0.94100
O2519       O  0.74986130  0.73313636  0.90754257    -0.92600
O2520       O  0.68618494  0.72437645  0.53492797    -0.92900
O2521       O  0.65792801  0.77493147  0.54008474    -0.91700
C2522       C  0.73401873  0.74698530  0.89158292     1.17400
H2523       H  0.74835855  0.72599942  0.54293415     0.33300
H2524       H  0.69294547  0.82286235  0.53930098     0.44200
H2525       H  0.77742200  0.77634443  0.92249748     0.37700
H2526       H  0.80404966  0.82546180  0.56182546     0.34200
H2527       H  0.66398790  0.77809049  0.61687632     0.25900
H2528       H  0.75906400  0.89603370  0.59798439     0.31900
H2529       H  0.82804482  0.85968532  0.97316947     0.37800
H2530       H  0.68214091  0.72296679  0.50848850     0.32300
H2531       H  0.72869798  0.69377549  0.94843521     0.31100
H2532       H  0.78284201  0.68829843  0.91432952     0.32800
H2533       H  0.82914874  0.77361509  0.91298346     0.31800
H2534       H  0.65956755  0.77766296  0.51386530     0.35800
H2535       H  0.67432220  0.78548380  0.94525917     0.28500
H2536       H  0.82358788  0.76539691  0.61977145     0.32700
H2537       H  0.86245744  0.82088741  0.98011833     0.35600
H2538       H  0.74800449  0.68401605  0.97550216     0.28200
H2539       H  0.66870126  0.81568742  0.96938837     0.41100
H2540       H  0.71105147  0.84546859  0.63572690     0.31100
H2541       H  0.68631220  0.80019077  0.62839182     0.38700
H2542       H  0.84197533  0.76311418  0.94530528     0.30600
H2543       H  0.78690886  0.88134221  0.57588389     0.30700
H2544       H  0.83801028  0.78293096  0.59244074     0.30900
N2545       N  0.70294161  0.67160155  0.72498612    -0.03600
C2546       C  0.69612637  0.64442581  0.71445179    -0.01000
C2547       C  0.70974405  0.62836501  0.73423241    -0.23900
C2548       C  0.72462674  0.64599118  0.75853959    -0.24100
C2549       C  0.71984407  0.67224555  0.75278385    -0.01100
H2550       H  0.70658236  0.60669967  0.73420783     0.12700
H2551       H  0.73498102  0.64078411  0.78120010     0.12700
N2552       N  0.83380025  0.89152551  0.77256221    -0.03600
C2553       C  0.85053532  0.91391883  0.77844735    -0.01000
C2554       C  0.84788050  0.92762935  0.81609747    -0.23900
C2555       C  0.82914567  0.91375361  0.83465314    -0.24100
C2556       C  0.82082416  0.89194477  0.80781574    -0.01100
H2557       H  0.85953538  0.94517928  0.82892409     0.12700
H2558       H  0.82312701  0.91825817  0.86489824     0.12700
Zr2559     Zr  0.53702644  0.55856145  0.66101499     2.17500
O2560       O  0.53550705  0.60304217  0.64250570    -0.51400
O2561       O  0.56459482  0.53145158  0.60504577    -0.74600
O2562       O  0.58134432  0.58128119  0.66580419    -0.81400
O2563       O  0.96813114  0.53417420  0.62270687    -0.83200
O2564       O  0.59660741  0.57545328  0.72076118    -0.78800
O2565       O  0.50799456  0.55973511  0.61060525    -0.90400
O2566       O  0.56555227  0.98726756  0.61148979    -0.76400
O2567       O  0.56579540  0.52877024  0.68575589    -0.85900
O2568       O  0.51682035  0.51419585  0.64886567    -0.85600
O2569       O  0.53545779  0.57966341  0.72745060    -0.72300
O2570       O  0.98796904  0.56443193  0.69323268    -0.84500
Zr2571     Zr  0.99591447  0.50949758  0.77276554     2.26400
Zr2572     Zr  0.56358445  0.54899127  0.75205761     2.06300
Zr2573     Zr  0.97029008  0.51871548  0.68079986     2.10000
Zr2574     Zr  0.54447341  0.98458293  0.67400653     1.78800
O2575       O  0.92459384  0.54164602  0.68484113    -0.93300
O2576       O  0.59345658  0.97116769  0.67344881    -0.41100
O2577       O  0.99954410  0.98907281  0.70568771    -0.77700
O2578       O  0.54463807  0.50362355  0.73999561    -0.96400
O2579       O  0.51779846  0.55486744  0.78568332    -0.89700
O2580       O  0.96662997  0.53839724  0.74742465    -0.92500
C2581       C  0.57094864  0.50551609  0.59212912     1.01200
C2582       C  0.98231387  0.54926111  0.60378934     1.14100
C2583       C  0.59888341  0.58482204  0.69048638     1.04900
O2584       O  0.61102986  0.53114047  0.75151216    -0.94700
O2585       O  0.56876430  0.53035409  0.80734881    -0.90400
O2586       O  0.52808013  0.00419674  0.81860455    -0.83600
C2587       C  0.55490861  0.51478968  0.82586491     1.11600
O2588       O  0.97858228  0.62783107  0.74267020    -0.96700
Zr2589     Zr  0.98544285  0.58351096  0.76023660     1.88900
O2590       O  0.96737945  0.53735430  0.82805228    -0.73300
O2591       O  0.57149749  0.59039736  0.79983889    -0.52600
O2592       O  0.51423675  0.61817654  0.80406191    -0.97300
O2593       O  0.93641335  0.59697752  0.76057182    -0.54500
O2594       O  0.96379138  0.58217522  0.82299542    -0.73800
C2595       C  0.95901602  0.56288955  0.84104115     0.98500
O2596       O  0.49442036  0.96910602  0.80125727    -0.62600
O2597       O  0.95936713  0.97941805  0.63327669    -0.57500
O2598       O  0.95656954  0.98134672  0.75869018    -0.94100
O2599       O  0.93932785  0.98929840  0.70619175    -0.92600
O2600       O  0.52481277  0.94715404  0.62995155    -0.88500
O2601       O  0.55045093  0.93976023  0.69027388    -0.91700
C2602       C  0.93864703  0.97755061  0.73413511     1.17400
H2603       H  0.51572400  0.50689029  0.62216661     0.33300
H2604       H  0.55350257  0.99064654  0.75085202     0.44200
H2605       H  0.94755078  0.53861551  0.75863676     0.37700
H2606       H  0.54346752  0.59776855  0.73081033     0.34200
H2607       H  0.59692094  0.95453026  0.65237219     0.25900
H2608       H  0.55956115  0.58851207  0.82283846     0.31900
H2609       H  0.00858119  0.61521803  0.82481458     0.37800
H2610       H  0.50517222  0.94655375  0.64068930     0.32300
H2611       H  0.94399122  0.98620207  0.62116738     0.31100
H2612       H  0.91591803  0.53106090  0.66281142     0.32800
H2613       H  0.92546496  0.58291338  0.77061313     0.31800
H2614       H  0.53297901  0.93780770  0.70614513     0.35800
H2615       H  0.97976630  0.97046334  0.81641698     0.28500
H2616       H  0.55127092  0.60197457  0.62247393     0.32700
H2617       H  0.96791716  0.64015852  0.76501208     0.35600
H2618       H  0.97551194  0.97621492  0.61351090     0.28200
H2619       H  0.49469589  0.95277068  0.77974766     0.41100
H2620       H  0.61320408  0.51460728  0.73018745     0.31100
H2621       H  0.60402745  0.98585864  0.66431934     0.38700
H2622       H  0.93326143  0.59343925  0.73352283     0.30600
H2623       H  0.59080506  0.58758759  0.80572457     0.30700
H2624       H  0.54080700  0.61696758  0.66447276     0.30900
C2625       C  0.86770432  0.94340850  0.73566408    -0.20400
C2626       C  0.87335760  0.92158211  0.75296057    -0.07000
C2627       C  0.90123290  0.91641098  0.75956125     0.13900
C2628       C  0.92204942  0.93447333  0.75194336    -0.20500
C2629       C  0.91601116  0.95778602  0.73776243    -0.07000
C2630       C  0.88861390  0.96162308  0.72789488     0.13900
C2631       C  0.88056063  0.98585166  0.71171717    -0.23800
H2632       H  0.84625818  0.94781976  0.73159456     0.15200
H2633       H  0.94305736  0.93078452  0.75845449     0.15200
C2634       C  0.90929504  0.89314826  0.77751286    -0.23800
H2635       H  0.85795037  0.98646074  0.70814812     0.05400
H2636       H  0.89219093  0.98409881  0.68334283     0.08600
H2637       H  0.88416985  0.50386152  0.73550536     0.08600
H2638       H  0.89146181  0.88031717  0.78326198     0.08600
H2639       H  0.91767869  0.90189500  0.80477203     0.08600
H2640       H  0.92563217  0.87933380  0.75829164     0.05400
C2641       C  0.67305366  0.60626593  0.67395979    -0.20400
C2642       C  0.67097371  0.63373269  0.69598311    -0.07000
C2643       C  0.64397912  0.64615859  0.70911801     0.13900
C2644       C  0.62034630  0.63019508  0.70292888    -0.20500
C2645       C  0.62298145  0.60196785  0.68524866    -0.07000
C2646       C  0.64942098  0.59000115  0.66937657     0.13900
C2647       C  0.65283136  0.55963628  0.65001374    -0.23800
H2648       H  0.69357811  0.59655772  0.66386271     0.15200
H2649       H  0.59981402  0.63911652  0.71497363     0.15200
C2650       C  0.63971731  0.67525795  0.73272712    -0.23800
H2651       H  0.67496558  0.55347209  0.63933752     0.05400
H2652       H  0.64025215  0.55526323  0.62562471     0.08600
H2653       H  0.64561660  0.54671712  0.67021644     0.08600
H2654       H  0.64803444  0.68989013  0.71572287     0.08600
H2655       H  0.65021766  0.67715548  0.75881551     0.08600
H2656       H  0.61727692  0.68109446  0.74161585     0.05400
C2657       C  0.72567042  0.67818154  0.66451462    -0.20400
C2658       C  0.70835414  0.68916120  0.69828662    -0.07000
C2659       C  0.70049458  0.71791250  0.70708914     0.13900
C2660       C  0.70951663  0.73441495  0.68166525    -0.20500
C2661       C  0.72692303  0.72330632  0.64829941    -0.07000
C2662       C  0.73513660  0.69487290  0.63960897     0.13900
C2663       C  0.75346141  0.68201955  0.60367430    -0.23800
H2664       H  0.73244196  0.65645278  0.65814191     0.15200
H2665       H  0.70283378  0.75619301  0.68789286     0.15200
C2666       C  0.68256550  0.73205812  0.74260523    -0.23800
H2667       H  0.75779189  0.65947191  0.60109846     0.05400
H2668       H  0.77374970  0.69237780  0.60331761     0.08600
H2669       H  0.74302518  0.68446984  0.57875025     0.08600
H2670       H  0.69459087  0.74821219  0.75988524     0.08600
H2671       H  0.67520862  0.71748281  0.76001048     0.08600
H2672       H  0.66382903  0.74212909  0.73512080     0.05400
C2673       C  0.69986607  0.70160246  0.81345173    -0.20400
C2674       C  0.72181765  0.69654882  0.78407310    -0.07000
C2675       C  0.74664175  0.71099523  0.78861149     0.13900
C2676       C  0.74954752  0.72918589  0.82351312    -0.20500
C2677       C  0.72795178  0.73325877  0.85340562    -0.07000
C2678       C  0.70253100  0.72002112  0.84798331     0.13900
C2679       C  0.67889065  0.72396377  0.87937102    -0.23800
H2680       H  0.68106176  0.68994880  0.80995739     0.15200
H2681       H  0.76911285  0.73930139  0.82809318     0.15200
C2682       C  0.77024863  0.70635614  0.75720409    -0.23800
H2683       H  0.66068851  0.71158617  0.87046061     0.05400
H2684       H  0.67188149  0.74620705  0.88776472     0.08600
H2685       H  0.68591825  0.71735230  0.90423343     0.08600
H2686       H  0.76298963  0.71207818  0.73187515     0.08600
H2687       H  0.77744484  0.68414436  0.74974974     0.08600
H2688       H  0.78830796  0.71916164  0.76550611     0.05400
C2689       C  0.82652492  0.84486476  0.67579036    -0.20400
C2690       C  0.79792674  0.84887520  0.67282914    -0.07000
C2691       C  0.78168615  0.86736398  0.70291157     0.13900
C2692       C  0.79436541  0.88127165  0.73460952    -0.20500
C2693       C  0.82303260  0.87769654  0.73751818    -0.07000
C2694       C  0.83936116  0.85919282  0.70736843     0.13900
C2695       C  0.87011329  0.85397027  0.70801139    -0.23800
H2696       H  0.83907216  0.83080673  0.65276556     0.15200
H2697       H  0.78171633  0.89515712  0.75768489     0.15200
C2698       C  0.75069548  0.87179992  0.70256579    -0.23800
H2699       H  0.87888767  0.83735275  0.68353641     0.05400
H2700       H  0.87418072  0.84731816  0.73404296     0.08600
H2701       H  0.88144447  0.87296790  0.70611818     0.08600
H2702       H  0.74046585  0.85150113  0.69859003     0.08600
H2703       H  0.74658392  0.88206849  0.67941111     0.08600
H2704       H  0.74096506  0.88530348  0.72952212     0.05400
C2705       C  0.77847548  0.87955870  0.84276261    -0.20400
C2706       C  0.80362489  0.87032407  0.81993006    -0.07000
C2707       C  0.81633246  0.84474988  0.82166334     0.13900
C2708       C  0.80568246  0.83094279  0.84938806    -0.20500
C2709       C  0.78257757  0.84203054  0.87524587    -0.07000
C2710       C  0.76778742  0.86580257  0.87064654     0.13900
C2711       C  0.74230468  0.87816929  0.89703613    -0.23800
H2712       H  0.76887003  0.89930312  0.84153310     0.15200
H2713       H  0.81639379  0.81217762  0.85230919     0.15200
C2714       C  0.84232723  0.83299331  0.79641124    -0.23800
H2715       H  0.73425144  0.89751966  0.89035339     0.05400
H2716       H  0.74749084  0.88336881  0.92673855     0.08600
H2717       H  0.72533051  0.86313563  0.89446160     0.08600
H2718       H  0.85924892  0.84795895  0.80067674     0.08600
H2719       H  0.83764272  0.82850687  0.76656444     0.08600
H2720       H  0.84992420  0.81322232  0.80237736     0.05400
C2721       C  0.61121121  0.50654181  0.54460041    -0.20400
C2722       C  0.58470356  0.49689304  0.55320151    -0.07000
C2723       C  0.57210404  0.97967726  0.52586538     0.13900
C2724       C  0.58697198  0.97059691  0.48994006    -0.20500
C2725       C  0.61430589  0.97865120  0.48245453    -0.07000
C2726       C  0.62577756  0.49740816  0.50849165     0.13900
C2727       C  0.65701214  0.50688473  0.00509075    -0.23800
H2728       H  0.62078276  0.52090677  0.56631103     0.15200
H2729       H  0.57771374  0.95621365  0.46809479     0.15200
C2730       C  0.54299966  0.96988500  0.53306374    -0.23800
H2731       H  0.67070497  0.49929140  0.02369757     0.05400
H2732       H  0.65624100  0.52997480  0.01227542     0.08600
H2733       H  0.66642184  0.50012714  0.97533668     0.08600
H2734       H  0.52810039  0.98808385  0.54268091     0.08600
H2735       H  0.54230847  0.95754954  0.55510485     0.08600
H2736       H  0.53606597  0.95651653  0.50712965     0.05400
C2737       C  0.60446655  0.50948509  0.89981086    -0.20400
C2738       C  0.59996583  0.97951618  0.89987515    -0.07000
C2739       C  0.58114178  0.96305819  0.87810016     0.13900
C2740       C  0.56372703  0.97542328  0.85730449    -0.20500
C2741       C  0.56879476  0.50533636  0.85588075    -0.07000
C2742       C  0.58784966  0.52176947  0.87779733     0.13900
C2743       C  0.59125976  0.55208651  0.87778188    -0.23800
H2744       H  0.62027153  0.52145796  0.91460856     0.15200
H2745       H  0.55038582  0.96242307  0.83910014     0.15200
C2746       C  0.58060090  0.93208853  0.87502306    -0.23800
H2747       H  0.60495758  0.56210906  0.89922382     0.05400
H2748       H  0.57059363  0.56334832  0.88455474     0.08600
H2749       H  0.60105177  0.55442131  0.84984046     0.08600
H2750       H  0.57615342  0.92776999  0.90358983     0.08600
H2751       H  0.60103679  0.92200971  0.86176730     0.08600
H2752       H  0.56429559  0.92242169  0.85744521     0.05400
C2753       C  0.68575254  0.93859684  0.98563646    -0.20400
C2754       C  0.66044213  0.93149305  0.97064126    -0.07000
C2755       C  0.64769213  0.90690911  0.97598905     0.13900
C2756       C  0.66123771  0.88936159  0.99449161    -0.20500
C2757       C  0.68771952  0.89516872  0.00653215    -0.07000
C2758       C  0.69958671  0.92067343  0.00359870     0.13900
C2759       C  0.72775362  0.92794000  0.01657825    -0.23800
H2760       H  0.69572220  0.95719893  0.98077782     0.15200
H2761       H  0.65228331  0.86965673  0.99651133     0.15200
C2762       C  0.62114631  0.89773971  0.95911913    -0.23800
H2763       H  0.73411540  0.94850521  0.01174633     0.05400
H2764       H  0.74379571  0.91202824  0.00086063     0.08600
H2765       H  0.72965091  0.92982074  0.54790969     0.08600
H2766       H  0.62408973  0.89564001  0.92798008     0.08600
H2767       H  0.60395960  0.91316842  0.97171984     0.08600
H2768       H  0.61476970  0.87734915  0.96459159     0.05400
C2769       C  0.94939841  0.58728692  0.53906390    -0.20400
C2770       C  0.93158206  0.56689626  0.52290420    -0.07000
C2771       C  0.93572204  0.53925349  0.52612711     0.13900
C2772       C  0.95512868  0.53339739  0.54967876    -0.20500
C2773       C  0.97003290  0.55470674  0.57048390    -0.07000
C2774       C  0.96844851  0.58166774  0.56329095     0.13900
C2775       C  0.98445657  0.60528436  0.58381163    -0.23800
H2776       H  0.94591828  0.60852319  0.53675232     0.15200
H2777       H  0.95704112  0.51250190  0.55421741     0.15200
C2778       C  0.91862225  0.51629673  0.50633621    -0.23800
H2779       H  0.97988364  0.62506101  0.57545472     0.05400
H2780       H  0.51233011  0.59727958  0.56957297     0.08600
H2781       H  0.97872958  0.60867946  0.61483445     0.08600
H2782       H  0.92170022  0.51489822  0.47535529     0.08600
H2783       H  0.89614050  0.52041965  0.51651229     0.08600
H2784       H  0.92484386  0.49582362  0.51150841     0.05400
C2785       C  0.94511388  0.59791665  0.90187585    -0.20400
C2786       C  0.94300260  0.57083819  0.87954046    -0.07000
C2787       C  0.92535525  0.55222458  0.89437465     0.13900
C2788       C  0.91084399  0.56101532  0.93060663    -0.20500
C2789       C  0.91360678  0.58763080  0.95328337    -0.07000
C2790       C  0.93079492  0.60645227  0.93859377     0.13900
C2791       C  0.93440908  0.63527318  0.96151741    -0.23800
H2792       H  0.95843187  0.61238915  0.89080800     0.15200
H2793       H  0.89740543  0.54675817  0.94192507     0.15200
C2794       C  0.92108356  0.52316159  0.87227866    -0.23800
H2795       H  0.95000686  0.64660622  0.94671434     0.05400
H2796       H  0.94159150  0.63429710  0.98915077     0.08600
H2797       H  0.91436264  0.64740544  0.96618550     0.08600
H2798       H  0.94082441  0.51042587  0.86791745     0.08600
H2799       H  0.91386963  0.52393277  0.84453661     0.08600
H2800       H  0.90513814  0.51242589  0.88746640     0.05400
C2801       C  0.87163197  0.65651253  0.02327763    -0.20400
C2802       C  0.86453373  0.63259766  0.99757587    -0.07000
C2803       C  0.84477827  0.63547392  0.47421490     0.13900
C2804       C  0.82911736  0.66047084  0.47914974    -0.20500
C2805       C  0.83307574  0.68398758  0.50822763    -0.07000
C2806       C  0.85508930  0.68253066  0.53090236     0.13900
C2807       C  0.86199875  0.70684190  0.56119827    -0.23800
H2808       H  0.88813537  0.65477965  0.04085765     0.15200
H2809       H  0.81280273  0.66105721  0.46094502     0.15200
C2810       C  0.83870377  0.61051054  0.44430539    -0.23800
H2811       H  0.88418012  0.70188293  0.06926413     0.05400
H2812       H  0.84437752  0.71186520  0.58399986     0.08600
H2813       H  0.86862744  0.72438338  0.04391733     0.08600
H2814       H  0.83188517  0.59326236  0.45770931     0.08600
H2815       H  0.85266891  0.60093971  0.92644080     0.08600
H2816       H  0.82196875  0.61527147  0.42761806     0.05400
loop_ 
_geom_bond_atom_site_label_1 
_geom_bond_atom_site_label_2 
_geom_bond_distance 
_geom_bond_site_symmetry_2 
_ccdc_geom_bond_type 
N1            C2   1.359       .  A
N1          C357   1.357       .  A
N1          C325   1.447       .  S
C2          C338   1.474       .  S
C2          C355   1.381       .  A
C3            C4   1.364       .  A
C3          C354   1.380       .  A
C3            H6   1.083       .  S
C4            C5   1.380       .  A
C4            H7   1.082       .  S
C5          N353   1.358   1_554  A
C5          C306   1.475       .  S
N8           C12   1.357       .  A
N8            C9   1.359       .  A
N8          C613   1.441       .  S
C9          C290   1.481       .  S
C9           C10   1.381       .  A
C10          C11   1.374       .  A
C10          H13   1.082       .  S
C11          C12   1.382       .  A
C11          H14   1.082       .  S
C12         C274   1.480       .  S
Zr15         O16   2.439       .  S
Zr15         O17   2.461       .  S
Zr15         O18   2.474       .  S
Zr15         O21   2.476       .  S
Zr15         O23   2.394       .  S
Zr15         O24   2.389       .  S
Zr15         O25   2.420       .  S
Zr15        O378   2.403       .  S
O16          H72   0.990       .  S
O16          H80   0.990       .  S
O17          C37   1.288       .  A
O18          C39   1.291       .  A
O19         Zr29   2.395       .  S
O19         C390   1.278       .  A
O20         Zr28   2.441       .  S
O20          C39   1.286       .  A
O21          C38   1.292       .  A
O22         Zr30   2.414       .  S
O22          C37   1.279       .  A
O23         Zr28   2.408       .  S
O23         Zr30   2.386       .  S
O24         Zr30   2.382       .  S
O24        Zr381   2.387   1_554  S
O24          H59   0.966       .  S
O25         Zr28   2.407       .  S
O25        Zr397   2.399   1_554  S
O25          H62   0.965       .  S
O26         Zr29   2.397       .  S
O26         Zr45   2.396       .  S
O26        Zr367   2.409       .  S
Zr27         O52   2.441       .  S
Zr27         O46   2.415       .  S
Zr27         O54   2.438       .  S
Zr27         O42   2.403       .  S
Zr27         O33   2.395       .  S
Zr27         O35   2.384       .  S
Zr27         O36   2.375       .  S
Zr27        O386   2.406       .  S
Zr28         O47   2.436       .  S
Zr28         O40   2.435       .  S
Zr28         O41   2.460       .  S
Zr28         O34   2.400       .  S
Zr28        O387   2.388   1_554  S
Zr29         O31   2.437       .  S
Zr29         O53   2.434       .  S
Zr29         O55   2.422       .  S
Zr29         O33   2.384       .  S
Zr29         O36   2.374       .  S
Zr29        O376   2.385       .  S
Zr30         O56   2.439       .  S
Zr30         O57   2.435       .  S
Zr30         O32   2.438       .  S
Zr30         O34   2.395       .  S
Zr30        O385   2.400   1_554  S
O31          H68   0.991       .  S
O32          H63   0.990       .  S
O32          H77   0.990       .  S
O33        Zr382   2.403       .  S
O34        Zr379   2.401   1_554  S
O34          H60   0.965       .  S
O35         Zr45   2.369       .  S
O35        Zr380   2.389       .  S
O36         Zr45   2.363       .  S
O36          H61   0.966       .  S
C37         C197   1.478       .  S
C38         C341   1.502       .  S
C38         O371   1.277   1_554  A
C39         C226   1.500       .  S
O40          H76   0.990       .  S
O41         C395   1.289       .  A
O42          C43   1.281       .  A
C43         C293   1.478       .  S
C43         O393   1.290       .  A
O44         Zr45   2.438       .  S
O44          H73   0.990       .  S
Zr45         O48   2.438       .  S
Zr45         O49   2.439       .  S
Zr45         O50   2.440       .  S
Zr45        O377   2.402       .  S
O46          C51   1.280       .  A
O47          H64   0.990       .  S
O47          H79   0.990       .  S
O48          H65   0.990       .  S
O49          H69   0.990       .  S
O49          H78   0.990       .  S
O50          C51   1.286       .  A
C51         C245   1.476       .  S
O52          H71   0.990       .  S
O52          H75   0.990       .  S
O53          H67   0.990       .  S
O53          H74   0.990       .  S
O54          C58   1.284       .  A
O55          C58   1.281       .  A
O56          H66   0.990       .  S
O57          H70   0.990       .  S
C58         C213   1.468       .  S
N81          C85   1.360       .  A
N81          C82   1.365       .  A
N81         C194   1.450       .  S
C82         C178   1.491       .  S
C82          C83   1.382       .  A
C83          C84   1.364       .  A
C83          H86   1.083       .  S
C84          C85   1.379       .  A
C84          H87   1.083       .  S
C85         C210   1.473       .  S
N88          C92   1.365       .  A
N88          C89   1.369       .  A
N88         C229   1.458       .  S
C89         C162   1.475       .  S
C89          C90   1.381       .  A
C90          C91   1.357       .  A
C90          H93   1.083       .  S
C91          C92   1.379       .  A
C91          H94   1.083       .  S
C92         C242   1.476       .  S
Zr95         O96   2.438       .  S
Zr95         O97   2.433       .  S
Zr95         O98   2.434       .  S
Zr95        O101   2.429       .  S
Zr95        O103   2.381       .  S
Zr95        O104   2.380       .  S
Zr95        O105   2.408       .  S
Zr95       O1514   2.409   1_455  S
O96         H152   0.991       .  S
O96         H160   0.990       .  S
O97         C117   1.283       .  A
O98         C119   1.283       .  A
O99        Zr109   2.420       .  S
O99         C118   1.283       .  A
O100       Zr108   2.429       .  S
O100        C119   1.284       .  A
O101       C1526   1.283   1_455  A
O102       Zr110   2.429       .  S
O102        C821   1.283       .  A
O103       Zr108   2.391       .  S
O103       Zr814   2.375   1_545  S
O104      Zr1517   2.378   1_455  S
O104       Zr814   2.367   1_545  S
O104        H139   0.967       .  S
O105       Zr108   2.393       .  S
O105      Zr1533   2.399   1_455  S
O105        H142   0.966       .  S
O106       Zr109   2.391       .  S
O106       Zr125   2.406       .  S
O106      Zr1503   2.408       .  S
Zr107      O2244   2.440   1_545  S
Zr107       O126   2.446       .  S
Zr107       O838   2.466   1_545  S
Zr107      O2234   2.452       .  S
Zr107       O116   2.383       .  S
Zr107       O817   2.404   1_545  S
Zr107      O1522   2.410       .  S
Zr107      O1523   2.381       .  S
Zr108       O127   2.436       .  S
Zr108       O120   2.434       .  S
Zr108       O121   2.428       .  S
Zr108       O114   2.397       .  S
Zr108       O115   2.391       .  S
Zr109       O111   2.436       .  S
Zr109       O837   2.438   1_545  S
Zr109       O839   2.405   1_545  S
Zr109       O116   2.398       .  S
Zr109      O1512   2.377       .  S
Zr109       O817   2.394   1_545  S
Zr110       O136   2.436       .  S
Zr110       O137   2.436       .  S
Zr110       O112   2.437       .  S
Zr110       O807   2.377       .  S
Zr110       O808   2.366       .  S
Zr110      O1521   2.398   1_455  S
Zr110       O818   2.393       .  S
O111        H148   0.990       .  S
O112        H143   0.990       .  S
O112        H157   0.990       .  S
O113       Zr811   2.403       .  S
O113       Zr813   2.395       .  S
O113      Zr1518   2.401       .  S
O114      Zr1515   2.414   1_455  S
O114       Zr814   2.395   1_545  S
O114        H844   0.966   1_545  S
O115      Zr1515   2.382   1_455  S
O115      Zr1533   2.374   1_455  S
O116       Zr125   2.381       .  S
O116        H141   0.966       .  S
C117        C258   1.474   1_545  S
C117        O806   1.283   1_545  A
C118        C309   1.482       .  S
C118       O1509   1.285       .  A
C119        C181   1.470       .  S
O120        H156   0.990       .  S
O121        C123   1.283       .  A
O122      Zr2219   2.445   1_455  S
O122        C827   1.288       .  A
C123        C277   1.490       .  S
C123        O826   1.288       .  A
O124       Zr125   2.435       .  S
O124        H153   0.990       .  S
Zr125       O129   2.438       .  S
Zr125      O1536   2.436       .  S
Zr125       O130   2.431       .  S
Zr125      O1513   2.398       .  S
Zr125      O1523   2.373       .  S
O126        C131   1.286       .  A
O127        H144   0.990       .  S
O127        H159   0.990       .  S
O128      Zr1533   2.439   1_455  S
O128       H1553   0.990   1_455  S
O129        H149   0.990       .  S
O129        H158   0.990       .  S
O130        C131   1.283       .  A
C131        C322   1.496       .  S
O132      Zr2219   2.440       .  S
O132        H155   0.990       .  S
O132       H1559   0.990       .  S
O133       Zr813   2.439       .  S
O133        H147   0.990       .  S
O133        H154   0.990       .  S
O134       Zr811   2.469       .  S
O134        C138   1.291       .  A
O135       Zr813   2.401       .  S
O135        C138   1.277       .  A
O136        H146   0.990       .  S
O137        H150   0.990       .  S
C138        C165   1.490       .  S
H140        O818   0.966       .  S
H145       O1536   0.990       .  S
H151       O1540   0.991       .  S
C161        C162   1.399       .  A
C161        C166   1.410       .  A
C161        H168   1.084       .  S
C162        C163   1.418       .  A
C163        C164   1.400       .  A
C163        C170   1.508       .  S
C164        C165   1.401       .  A
C164        H169   1.085       .  S
C165        C166   1.423       .  A
C166        C167   1.507       .  S
C167        H171   1.111       .  S
C167        H172   1.109       .  S
C167        H877   1.111       .  S
C170        H174   1.107       .  S
C170        H175   1.111       .  S
C170        H176   1.110       .  S
H173        C871   1.110   1_545  S
C177        C178   1.409       .  A
C177        C182   1.405       .  A
C177        H184   1.084       .  S
C178        C179   1.419       .  A
C179        C180   1.404       .  A
C179        C186   1.500       .  S
C180        C181   1.398       .  A
C180        H185   1.085       .  S
C181        C182   1.407       .  A
C182        C183   1.506       .  S
C183        H187   1.111       .  S
C183        H188   1.110       .  S
C183        H189   1.111       .  S
C186        H190   1.107       .  S
C186        H191   1.108       .  S
C186        H192   1.111       .  S
C193        C194   1.409       .  A
C193        C198   1.406       .  A
C193        H200   1.083       .  S
C194        C195   1.420       .  A
C195        C196   1.406       .  A
C195        C202   1.501       .  S
C196        C197   1.400       .  A
C196        H201   1.085       .  S
C197        C198   1.411       .  A
C198        C199   1.507       .  S
C199        H203   1.111       .  S
C199        H204   1.110       .  S
C199        H205   1.111       .  S
C202        H206   1.110       .  S
C202        H207   1.100       .  S
C202        H208   1.111       .  S
C209        C210   1.404       .  A
C209        C214   1.398       .  A
C209        H216   1.084       .  S
C210        C211   1.407       .  A
C211        C212   1.406       .  A
C211        C218   1.505       .  S
C212        C213   1.405       .  A
C212        H217   1.084       .  S
C213        C214   1.408       .  A
C214        C215   1.506       .  S
C215        H219   1.111       .  S
C215        H220   1.109       .  S
C215        H221   1.110       .  S
C218        H222   1.111       .  S
C218        H223   1.110       .  S
C218        H224   1.111       .  S
C225        C226   1.408       .  A
C225        C230   1.416       .  A
C225        H232   1.084       .  S
C226        C227   1.416       .  A
C227        C228   1.409       .  A
C227        C234   1.508       .  S
C228        C229   1.408       .  A
C228        H233   1.084       .  S
C229        C230   1.419       .  A
C230        C231   1.504       .  S
C231        H235   1.111       .  S
C231        H236   1.106       .  S
C231        H237   1.105       .  S
C234        H238   1.111       .  S
C234        H239   1.109       .  S
C234        H240   1.111       .  S
C241        C242   1.405       .  A
C241        C246   1.404       .  A
C241        H248   1.085       .  S
C242        C243   1.411       .  A
C243        C244   1.401       .  A
C243        C250   1.503       .  S
C244        C245   1.402       .  A
C244        H249   1.084       .  S
C245        C246   1.414       .  A
C246        C247   1.509       .  S
C247        H251   1.111       .  S
C247        H252   1.110       .  S
C247        H253   1.110       .  S
C250        H254   1.109       .  S
C250        H255   1.108       .  S
C250        H256   1.111       .  S
C257        C258   1.400   1_545  A
C257        C262   1.403   1_545  A
C257        H264   1.084       .  S
C258        C963   1.413       .  A
C259        C260   1.402   1_554  A
C259        C962   1.412       .  A
C259        C266   1.508       .  S
C260        C261   1.400       .  A
C260        H265   1.078       .  S
C261        N360   1.439       .  S
C261        C966   1.413   1_556  A
C262        C965   1.414   1_554  A
C262        C615   1.505   1_565  S
C263        C614   1.505   1_545  S
C263        H267   1.110       .  S
C263        H268   1.110       .  S
C263        H269   1.108   1_545  S
C266        H270   1.111       .  S
C266        H271   1.109       .  S
C266        H272   1.111       .  S
C273        C278   1.408       .  A
C273        C978   1.400   1_545  A
C273        H280   1.084       .  S
C274        C275   1.413       .  A
C274        C977   1.400       .  A
C275        C276   1.404       .  A
C275        C282   1.509       .  S
C276        C981   1.405       .  A
C276        H281   1.084       .  S
C277        C278   1.421       .  A
C277        C980   1.405   1_545  A
C278        C279   1.508       .  S
C279        H283   1.111       .  S
C279        H284   1.110       .  S
C279        H285   1.109       .  S
C282        H286   1.108       .  S
C282        H287   1.109       .  S
C282        H288   1.111       .  S
C289        C290   1.406       .  A
C289        C294   1.410       .  A
C289        H296   1.084       .  S
C290        C291   1.413       .  A
C291        C292   1.400       .  A
C291        C298   1.507       .  S
C292        C293   1.402       .  A
C292        H297   1.085       .  S
C293        C294   1.412       .  A
C294        C295   1.505       .  S
C295        H299   1.111       .  S
C295        H300   1.110       .  S
C295        H653   1.110       .  S
C298        H302   1.110       .  S
C298        H303   1.104       .  S
C298        H304   1.111       .  S
H301        C647   1.110       .  S
C305        C306   1.402       .  A
C305        C310   1.404       .  A
C305        H312   1.083       .  S
C306        C307   1.409       .  A
C307        C308   1.402       .  A
C307        C314   1.507       .  S
C308        C309   1.407       .  A
C308        H313   1.084       .  S
C309        C310   1.415       .  A
C310        C311   1.506       .  S
C311        H315   1.111       .  S
C311        H317   1.110       .  S
C311       H1724   1.110       .  S
C314        H318   1.110   1_554  S
C314        H319   1.109       .  S
C314        H320   1.111   1_545  S
H316       C1719   1.110   1_455  S
C321        C322   1.411       .  A
C321        C326   1.411       .  A
C321        H328   1.084       .  S
C322        C323   1.418       .  A
C323        C324   1.406       .  A
C323        C330   1.509       .  S
C324        C325   1.405       .  A
C324        H329   1.084       .  S
C325        C326   1.410       .  A
C326        C327   1.503       .  S
C327        H331   1.111       .  S
C327        H332   1.106       .  S
C327        H333   1.107       .  S
C330        H334   1.110       .  S
C330        H335   1.111       .  S
C330        H336   1.111       .  S
C337        C338   1.404       .  A
C337        C694   1.408       .  A
C337        H344   1.085       .  S
C338        C691   1.402       .  A
C339        C340   1.401       .  A
C339        C690   1.401       .  A
C339        C346   1.507       .  S
C340        C341   1.417   1_556  A
C340        H345   1.083       .  S
C341        C342   1.419       .  A
C342        C689   1.409       .  A
C342        C343   1.505       .  S
C343        H348   1.109       .  S
C343        H699   1.111       .  S
C343        H701   1.110       .  S
C346        H350   1.110       .  S
C346        H352   1.111       .  S
C346        H703   1.111       .  S
H347        C695   1.111       .  S
H349        C695   1.110       .  S
H351        C698   1.110       .  S
N353        C354   1.360   1_556  A
N353        C677   1.448       .  S
C354        C690   1.474   1_554  S
C355        C356   1.365       .  A
C355        H358   1.083       .  S
C356        C357   1.380       .  A
C356        H359   1.082       .  S
C357        C658   1.472       .  S
N360        C364   1.356       .  A
N360        C361   1.358       .  A
C361        C642   1.483       .  S
C361        C362   1.382       .  A
C362        C363   1.376       .  A
C362        H365   1.082       .  S
C363        C364   1.382       .  A
C363        H366   1.082       .  S
C364        C626   1.481       .  S
Zr367       O368   2.440       .  S
Zr367       O369   2.464       .  S
Zr367       O370   2.477       .  S
Zr367       O373   2.475       .  S
Zr367       O375   2.393       .  S
Zr367       O376   2.390       .  S
Zr367       O377   2.421       .  S
O368        H424   0.990       .  S
O368        H432   0.990       .  S
O369        C389   1.289       .  A
O370        C391   1.291       .  A
O371       Zr381   2.388       .  S
O372       Zr380   2.447       .  S
O372        C391   1.287       .  A
O373        C390   1.292       .  A
O374       Zr382   2.411       .  S
O374        C389   1.279       .  A
O375       Zr380   2.406       .  S
O375       Zr382   2.386       .  S
O376       Zr382   2.383       .  S
O376        H411   0.966       .  S
O377       Zr380   2.406       .  S
O377        H414   0.965       .  S
O378       Zr381   2.394   1_554  S
O378       Zr397   2.397   1_554  S
Zr379       O404   2.440       .  S
Zr379       O398   2.412       .  S
Zr379       O406   2.433       .  S
Zr379       O394   2.409       .  S
Zr379       O385   2.392       .  S
Zr379       O387   2.380       .  S
Zr379       O388   2.374       .  S
Zr380       O399   2.437       .  S
Zr380       O392   2.436       .  S
Zr380       O393   2.463       .  S
Zr380       O386   2.400       .  S
Zr381       O383   2.437       .  S
Zr381       O405   2.435       .  S
Zr381       O407   2.415       .  S
Zr381       O385   2.385       .  S
Zr381       O388   2.370       .  S
Zr382       O408   2.436       .  S
Zr382       O409   2.436       .  S
Zr382       O384   2.436       .  S
Zr382       O386   2.392       .  S
O383        H420   0.990       .  S
O384        H415   0.991       .  S
O384        H429   0.990       .  S
O386        H412   0.965       .  S
O387       Zr397   2.371       .  S
O388       Zr397   2.362       .  S
O388        H413   0.965       .  S
C389        C549   1.478       .  S
C390        C693   1.502       .  S
C391        C578   1.507       .  S
O392        H428   0.990       .  S
O394        C395   1.282   1_556  A
C395        C645   1.479       .  S
O396       Zr397   2.439   1_554  S
O396        H425   0.991   1_554  S
Zr397       O400   2.437       .  S
Zr397       O401   2.438       .  S
Zr397       O402   2.441       .  S
O398        C403   1.280       .  A
O399        H416   0.990       .  S
O399        H431   0.990       .  S
O400        H417   0.990       .  S
O401        H421   0.990       .  S
O401        H430   0.990       .  S
O402        C403   1.287       .  A
C403        C597   1.475       .  S
O404        H423   0.990       .  S
O404        H427   0.990       .  S
O405        H419   0.990       .  S
O405        H426   0.990       .  S
O406        C410   1.284       .  A
O407        C410   1.280       .  A
O408        H418   0.990       .  S
O409        H422   0.990       .  S
C410        C565   1.464       .  S
N433        C437   1.359       .  A
N433        C434   1.366       .  A
N433        C546   1.449       .  S
C434        C530   1.492       .  S
C434        C435   1.383       .  A
C435        C436   1.365       .  A
C435        H438   1.083       .  S
C436        C437   1.378       .  A
C436        H439   1.083       .  S
C437        C562   1.471       .  S
N440        C444   1.366       .  A
N440        C441   1.369       .  A
N440        C581   1.458       .  S
C441        C514   1.474       .  S
C441        C442   1.380       .  A
C442        C443   1.357       .  A
C442        H445   1.083       .  S
C443        C444   1.379       .  A
C443        H446   1.083       .  S
C444        C594   1.478       .  S
Zr447       O448   2.438       .  S
Zr447       O449   2.425       .  S
Zr447       O450   2.437       .  S
Zr447       O453   2.436       .  S
Zr447       O455   2.383       .  S
Zr447       O456   2.380       .  S
Zr447       O457   2.410       .  S
Zr447      O1866   2.407   1_455  S
O448        H504   0.990       .  S
O448        H512   0.990       .  S
O449        C469   1.282       .  A
O450        C471   1.283       .  A
O451       Zr461   2.412       .  S
O451        C470   1.282       .  A
O452       Zr460   2.435       .  S
O452        C471   1.285       .  A
O453       C1878   1.285   1_455  A
O454       Zr462   2.434       .  S
O454       C1173   1.284       .  A
O455       Zr460   2.391       .  S
O455      Zr1166   2.375   1_545  S
O456      Zr1869   2.375   1_455  S
O456      Zr1166   2.367   1_545  S
O456        H491   0.967       .  S
O457       Zr460   2.393       .  S
O457      Zr1885   2.402   1_455  S
O457        H494   0.967       .  S
O458      Zr1855   2.407       .  S
O458       Zr461   2.393       .  S
O458       Zr477   2.404       .  S
Zr459      O2596   2.440   1_545  S
Zr459       O478   2.453       .  S
Zr459      O1190   2.473   1_545  S
Zr459      O2586   2.445       .  S
Zr459      O1169   2.403   1_545  S
Zr459      O1874   2.417       .  S
Zr459      O1875   2.385       .  S
Zr459       O468   2.379       .  S
Zr460       O479   2.436       .  S
Zr460       O472   2.434       .  S
Zr460       O473   2.432       .  S
Zr460       O466   2.399       .  S
Zr460       O467   2.390       .  S
Zr461       O463   2.434       .  S
Zr461      O1189   2.439   1_545  S
Zr461      O1191   2.402   1_545  S
Zr461      O1864   2.378       .  S
Zr461      O1169   2.392   1_545  S
Zr461       O468   2.393       .  S
Zr462       O488   2.435       .  S
Zr462       O489   2.438       .  S
Zr462       O464   2.436       .  S
Zr462      O1159   2.373       .  S
Zr462      O1160   2.370       .  S
Zr462      O1873   2.400   1_455  S
Zr462      O1170   2.392       .  S
O463        H500   0.990       .  S
O464        H495   0.990       .  S
O464        H509   0.990       .  S
O465      Zr1163   2.401       .  S
O465      Zr1165   2.394       .  S
O465      Zr1870   2.392       .  S
O466      Zr1867   2.414   1_455  S
O466      Zr1166   2.394   1_545  S
O466       H1196   0.966   1_545  S
O467      Zr1867   2.381   1_455  S
O467      Zr1885   2.375   1_455  S
O468       Zr477   2.384       .  S
O468        H493   0.966       .  S
C469        C610   1.469   1_545  S
C469       O1158   1.283   1_545  A
C470        C661   1.480       .  S
C470       O1861   1.286       .  A
C471        C533   1.474       .  S
O472        H508   0.990       .  S
O473        C475   1.284       .  A
O474      Zr2571   2.450   1_455  S
O474       C1179   1.289       .  A
C475        C629   1.489       .  S
C475       O1178   1.288       .  A
O476       Zr477   2.439       .  S
O476        H505   0.991       .  S
Zr477      O1888   2.437       .  S
Zr477       O481   2.438       .  S
Zr477       O482   2.433       .  S
Zr477      O1865   2.398       .  S
Zr477      O1875   2.376       .  S
O478        C483   1.288       .  A
O479        H496   0.990       .  S
O479        H511   0.990       .  S
O480      Zr1885   2.437   1_455  S
O480       H1905   0.990       .  S
O481        H501   0.990       .  S
O481        H510   0.990       .  S
O482        C483   1.284       .  A
C483        C674   1.498       .  S
O484      Zr2571   2.442       .  S
O484       H1911   0.990       .  S
O484        H507   0.991       .  S
O485      Zr1165   2.439       .  S
O485        H499   0.990       .  S
O485        H506   0.990       .  S
O486      Zr1163   2.466       .  S
O486        C490   1.291       .  A
O487      Zr1165   2.402       .  S
O487        C490   1.278       .  A
O488        H498   0.991       .  S
O489        H502   0.990       .  S
C490        C517   1.487       .  S
H492       O1170   0.965       .  S
H497       O1888   0.990       .  S
H503       O1892   0.990       .  S
C513        C514   1.401       .  A
C513        C518   1.409       .  A
C513        H520   1.084       .  S
C514        C515   1.418       .  A
C515        C516   1.400       .  A
C515        C522   1.508       .  S
C516        C517   1.400       .  A
C516        H521   1.085       .  S
C517        C518   1.421       .  A
C518        C519   1.508       .  S
C519        H523   1.111       .  S
C519        H524   1.110       .  S
C519       H1229   1.111       .  S
C522        H526   1.108       .  S
C522        H527   1.111       .  S
C522        H528   1.110       .  S
H525       C1223   1.110   1_545  S
C529        C530   1.409       .  A
C529        C534   1.408       .  A
C529        H536   1.084       .  S
C530        C531   1.418       .  A
C531        C532   1.404       .  A
C531        C538   1.500       .  S
C532        C533   1.397       .  A
C532        H537   1.085       .  S
C533        C534   1.409       .  A
C534        C535   1.505       .  S
C535        H539   1.111       .  S
C535        H540   1.110       .  S
C535        H541   1.110       .  S
C538        H542   1.107       .  S
C538        H543   1.108       .  S
C538        H544   1.111       .  S
C545        C546   1.408       .  A
C545        C550   1.405       .  A
C545        H552   1.083       .  S
C546        C547   1.420       .  A
C547        C548   1.406       .  A
C547        C554   1.503       .  S
C548        C549   1.402       .  A
C548        H553   1.085       .  S
C549        C550   1.410       .  A
C550        C551   1.507       .  S
C551        H555   1.111       .  S
C551        H556   1.110       .  S
C551        H557   1.110       .  S
C554        H558   1.111       .  S
C554        H559   1.100       .  S
C554        H560   1.110       .  S
C561        C562   1.403       .  A
C561        C566   1.397       .  A
C561        H568   1.084       .  S
C562        C563   1.408       .  A
C563        C564   1.405       .  A
C563        C570   1.505       .  S
C564        C565   1.405       .  A
C564        H569   1.084       .  S
C565        C566   1.407       .  A
C566        C567   1.507       .  S
C567        H571   1.111       .  S
C567        H572   1.110       .  S
C567        H573   1.111       .  S
C570        H574   1.111       .  S
C570        H575   1.110       .  S
C570        H576   1.111       .  S
C577        C578   1.409       .  A
C577        C582   1.417       .  A
C577        H584   1.084       .  S
C578        C579   1.419       .  A
C579        C580   1.411       .  A
C579        C586   1.507       .  S
C580        C581   1.406       .  A
C580        H585   1.084       .  S
C581        C582   1.419       .  A
C582        C583   1.504       .  S
C583        H587   1.111       .  S
C583        H588   1.105       .  S
C583        H589   1.105       .  S
C586        H590   1.110       .  S
C586        H591   1.109       .  S
C586        H592   1.111       .  S
C593        C594   1.406       .  A
C593        C598   1.404       .  A
C593        H600   1.084       .  S
C594        C595   1.412       .  A
C595        C596   1.402       .  A
C595        C602   1.502       .  S
C596        C597   1.402       .  A
C596        H601   1.084       .  S
C597        C598   1.413       .  A
C598        C599   1.509       .  S
C599        H603   1.111       .  S
C599        H604   1.111       .  S
C599        H605   1.110       .  S
C602        H606   1.109       .  S
C602        H607   1.108       .  S
C602        H608   1.111       .  S
C609        C610   1.400   1_545  A
C609        C614   1.402   1_545  A
C609        H616   1.084       .  S
C610       C1315   1.412       .  A
C611       C1314   1.413       .  A
C611        C612   1.403       .  A
C611        C618   1.507       .  S
C612        C613   1.400       .  A
C612        H617   1.080       .  S
C613       C1318   1.415       .  A
C614       C1317   1.414       .  A
C615        H619   1.110       .  S
C615        H620   1.111       .  S
C615        H621   1.108   1_554  S
C618        H622   1.111       .  S
C618        H623   1.109       .  S
C618        H624   1.111       .  S
C625       C1330   1.401   1_545  A
C625        C630   1.409       .  A
C625        H632   1.084       .  S
C626       C1329   1.401       .  A
C626        C627   1.413       .  A
C627        C628   1.405       .  A
C627        C634   1.509       .  S
C628       C1333   1.406       .  A
C628        H633   1.084       .  S
C629       C1332   1.405   1_545  A
C629        C630   1.420       .  A
C630        C631   1.507       .  S
C631        H635   1.111       .  S
C631        H636   1.110       .  S
C631        H637   1.108       .  S
C634        H638   1.107       .  S
C634        H639   1.109       .  S
C634        H640   1.111       .  S
C641        C642   1.406       .  A
C641        C646   1.411   1_556  A
C641        H648   1.084       .  S
C642        C643   1.413       .  A
C643        C644   1.400       .  A
C643        C650   1.507       .  S
C644        C645   1.402   1_556  A
C644        H649   1.085       .  S
C645        C646   1.412       .  A
C646        C647   1.505       .  S
C647        H651   1.111       .  S
C647        H652   1.110       .  S
C650        H654   1.110       .  S
C650        H655   1.104       .  S
C650        H656   1.111       .  S
C657        C658   1.401       .  A
C657        C662   1.402       .  A
C657        H664   1.082       .  S
C658        C659   1.408       .  A
C659        C660   1.401       .  A
C659        C666   1.507       .  S
C660        C661   1.408       .  A
C660        H665   1.084       .  S
C661        C662   1.414       .  A
C662        C663   1.506       .  S
C663        H667   1.111       .  S
C663       H2076   1.110       .  S
C663        H669   1.110       .  S
C666        H670   1.110       .  S
C666        H671   1.109       .  S
C666        H672   1.111   1_545  S
H668       C2071   1.110   1_455  S
C673        C674   1.412       .  A
C673        C678   1.413       .  A
C673        H680   1.084       .  S
C674        C675   1.418       .  A
C675        C676   1.405       .  A
C675        C682   1.509       .  S
C676        C677   1.405       .  A
C676        H681   1.084       .  S
C677        C678   1.409       .  A
C678        C679   1.503       .  S
C679        H683   1.111       .  S
C679        H684   1.108       .  S
C679        H685   1.108       .  S
C682        H686   1.109       .  S
C682        H687   1.111       .  S
C682        H688   1.111       .  S
C689        C690   1.405   1_554  A
C689        H696   1.085       .  S
C691        C692   1.402       .  A
C691        C698   1.507       .  S
C692        C693   1.417       .  A
C692        H697   1.083       .  S
C693        C694   1.419       .  A
C694        C695   1.505       .  S
C695        H700   1.109       .  S
C698        H702   1.110       .  S
C698        H704   1.111       .  S
N705       C1061   1.357       .  A
N705        C706   1.359       .  A
N705       C1029   1.446       .  S
C706       C1042   1.472       .  S
C706       C1059   1.381       .  A
C707       C1058   1.381       .  A
C707        C708   1.365       .  A
C707        H710   1.083       .  S
C708        C709   1.380       .  A
C708        H711   1.083       .  S
C709       N1057   1.358   1_554  A
C709       C1010   1.474       .  S
N712        C716   1.356       .  A
N712        C713   1.357       .  A
N712       C1317   1.439       .  S
C713        C994   1.481       .  S
C713        C714   1.381       .  A
C714        C715   1.374       .  A
C714        H717   1.082       .  S
C715        C716   1.381       .  A
C715        H718   1.082       .  S
C716        C978   1.479       .  S
Zr719       O720   2.440       .  S
Zr719       O721   2.461       .  S
Zr719       O722   2.464       .  S
Zr719       O725   2.474       .  S
Zr719       O727   2.392       .  S
Zr719       O728   2.387       .  S
Zr719       O729   2.421       .  S
Zr719      O1082   2.408       .  S
O720        H776   0.990       .  S
O720        H784   0.990       .  S
O721        C741   1.289       .  A
O722        C743   1.289       .  A
O723       Zr733   2.391       .  S
O723       C1094   1.277       .  A
O724       Zr732   2.447       .  S
O724        C743   1.287       .  A
O725        C742   1.292       .  A
O726       Zr734   2.409       .  S
O726        C741   1.278       .  A
O727       Zr732   2.404       .  S
O727       Zr734   2.384       .  S
O728      Zr1085   2.385   1_554  S
O728       Zr734   2.386       .  S
O728        H763   0.967       .  S
O729       Zr732   2.407       .  S
O729      Zr1101   2.400   1_554  S
O729        H766   0.965       .  S
O730      Zr1071   2.406       .  S
O730       Zr733   2.398       .  S
O730       Zr749   2.396       .  S
Zr731       O756   2.441       .  S
Zr731       O750   2.407       .  S
Zr731       O758   2.437       .  S
Zr731       O746   2.415       .  S
Zr731       O737   2.391       .  S
Zr731      O1090   2.399       .  S
Zr731       O739   2.382       .  S
Zr731       O740   2.378       .  S
Zr732       O751   2.436       .  S
Zr732       O744   2.435       .  S
Zr732       O745   2.464       .  S
Zr732       O738   2.400       .  S
Zr732      O1091   2.389   1_554  S
Zr733       O735   2.437       .  S
Zr733       O757   2.434       .  S
Zr733       O759   2.419       .  S
Zr733      O1080   2.385       .  S
Zr733       O737   2.381       .  S
Zr733       O740   2.374       .  S
Zr734       O760   2.438       .  S
Zr734       O761   2.437       .  S
Zr734       O736   2.437       .  S
Zr734      O1089   2.401   1_554  S
Zr734       O738   2.391       .  S
O735        H772   0.991       .  S
O736        H767   0.990       .  S
O736        H781   0.990       .  S
O737      Zr1086   2.399       .  S
O738      Zr1083   2.403   1_554  S
O738        H764   0.965       .  S
O739      Zr1084   2.389       .  S
O739       Zr749   2.371       .  S
O740       Zr749   2.366       .  S
O740        H765   0.965       .  S
C741        C901   1.476       .  S
C742       C1045   1.499       .  S
C742       O1075   1.278   1_554  A
C743        C930   1.500       .  S
O744        H780   0.990       .  S
O745       C1099   1.290       .  A
O746        C747   1.282       .  A
C747        C997   1.477       .  S
C747       O1097   1.288       .  A
O748       Zr749   2.440       .  S
O748        H777   0.991       .  S
Zr749       O752   2.438       .  S
Zr749       O753   2.439       .  S
Zr749       O754   2.437       .  S
Zr749      O1081   2.399       .  S
O750        C755   1.279       .  A
O751        H768   0.990       .  S
O751        H783   0.990       .  S
O752        H769   0.990       .  S
O753        H773   0.990       .  S
O753        H782   0.990       .  S
O754        C755   1.286       .  A
C755        C949   1.470       .  S
O756        H775   0.990       .  S
O756        H779   0.990       .  S
O757        H771   0.990       .  S
O757        H778   0.990       .  S
O758        C762   1.284       .  A
O759        C762   1.280       .  A
O760        H770   0.990       .  S
O761        H774   0.990       .  S
C762        C917   1.468       .  S
N785        C789   1.359       .  A
N785        C786   1.366       .  A
N785        C898   1.449       .  S
C786        C882   1.493       .  S
C786        C787   1.383       .  A
C787        C788   1.364       .  A
C787        H790   1.083       .  S
C788        C789   1.377       .  A
C788        H791   1.082       .  S
C789        C914   1.472       .  S
N792        C796   1.364       .  A
N792        C793   1.369       .  A
N792        C933   1.457       .  S
C793        C866   1.475       .  S
C793        C794   1.381       .  A
C794        C795   1.358       .  A
C794        H797   1.083       .  S
C795        C796   1.379       .  A
C795        H798   1.083       .  S
C796        C946   1.473       .  S
Zr799       O800   2.437       .  S
Zr799       O801   2.429       .  S
Zr799       O802   2.434       .  S
Zr799       O805   2.429       .  S
Zr799       O807   2.382       .  S
Zr799       O808   2.379       .  S
Zr799       O809   2.406       .  S
Zr799      O2218   2.406   1_455  S
O800        H856   0.990       .  S
O800        H864   0.990       .  S
O801        C821   1.283       .  A
O802        C823   1.283       .  A
O803       Zr813   2.420       .  S
O803        C822   1.284       .  A
O804       Zr812   2.435       .  S
O804        C823   1.285       .  A
O805       C2230   1.284   1_455  A
O806       Zr814   2.432       .  S
O807       Zr812   2.390       .  S
O808      Zr2221   2.377   1_455  S
O808        H843   0.967       .  S
O809       Zr812   2.392       .  S
O809      Zr2237   2.397   1_455  S
O809        H846   0.966       .  S
O810      Zr2207   2.404       .  S
O810       Zr813   2.389       .  S
O810       Zr829   2.402       .  S
Zr811      O1540   2.443       .  S
Zr811       O830   2.448       .  S
Zr811      O1530   2.448       .  S
Zr811      O2226   2.416       .  S
Zr811      O2227   2.385       .  S
Zr811       O820   2.381       .  S
Zr812       O831   2.435       .  S
Zr812       O824   2.434       .  S
Zr812       O825   2.432       .  S
Zr812       O818   2.398       .  S
Zr812       O819   2.393       .  S
Zr813       O815   2.434       .  S
Zr813      O2216   2.375       .  S
Zr813       O820   2.395       .  S
Zr814       O840   2.436       .  S
Zr814       O841   2.435       .  S
Zr814       O816   2.438       .  S
Zr814      O2225   2.400   1_455  S
O815        H852   0.990       .  S
O816        H847   0.990       .  S
O816        H861   0.990       .  S
O817      Zr2222   2.397       .  S
O818      Zr2219   2.415   1_455  S
O819      Zr2219   2.386   1_455  S
O819      Zr2237   2.376   1_455  S
O820       Zr829   2.383       .  S
O820        H845   0.966       .  S
C821        C962   1.472       .  S
C822       C1013   1.480       .  S
C822       O2213   1.285       .  A
C823        C885   1.473       .  S
O824        H860   0.989       .  S
O825        C827   1.284       .  A
O826      Zr1515   2.446   1_455  S
C827        C981   1.490       .  S
O828       Zr829   2.439       .  S
O828        H857   0.991       .  S
Zr829      O2240   2.439       .  S
Zr829       O833   2.440       .  S
Zr829       O834   2.427       .  S
Zr829      O2217   2.401       .  S
Zr829      O2227   2.379       .  S
O830        C835   1.286       .  A
O831        H848   0.990       .  S
O831        H863   0.990       .  S
O832      Zr2237   2.437   1_455  S
O832       H2257   0.990   1_455  S
O833        H853   0.990       .  S
O833        H862   0.990       .  S
O834        C835   1.283       .  A
C835       C1026   1.494       .  S
O836      Zr1515   2.440   1_565  S
O836       H2263   0.990       .  S
O836        H859   0.990       .  S
O837        H851   0.990       .  S
O837        H858   0.990       .  S
O838        C842   1.291       .  A
O839        C842   1.278       .  A
O840        H850   0.990       .  S
O841        H854   0.990       .  S
C842        C869   1.487       .  S
H849       O2240   0.990       .  S
H855       O2244   0.990       .  S
C865        C866   1.402       .  A
C865        C870   1.411       .  A
C865        H872   1.084       .  S
C866        C867   1.418       .  A
C867        C868   1.399       .  A
C867        C874   1.508       .  S
C868        C869   1.400       .  A
C868        H873   1.085       .  S
C869        C870   1.421       .  A
C870        C871   1.507       .  S
C871        H875   1.111       .  S
C871        H876   1.110       .  S
C874        H878   1.108       .  S
C874        H879   1.110       .  S
C874        H880   1.110       .  S
C881        C882   1.409       .  A
C881        C886   1.406       .  A
C881        H888   1.084       .  S
C882        C883   1.418       .  A
C883        C884   1.405       .  A
C883        C890   1.500       .  S
C884        C885   1.398       .  A
C884        H889   1.085       .  S
C885        C886   1.407       .  A
C886        C887   1.506       .  S
C887        H891   1.111       .  S
C887        H892   1.110       .  S
C887        H893   1.111       .  S
C890        H894   1.108       .  S
C890        H895   1.108       .  S
C890        H896   1.111       .  S
C897        C898   1.408       .  A
C897        C902   1.403       .  A
C897        H904   1.083       .  S
C898        C899   1.421       .  A
C899        C900   1.407       .  A
C899        C906   1.502       .  S
C900        C901   1.402       .  A
C900        H905   1.085       .  S
C901        C902   1.409       .  A
C902        C903   1.507       .  S
C903        H907   1.111       .  S
C903        H908   1.110       .  S
C903        H909   1.110       .  S
C906        H910   1.111       .  S
C906        H911   1.100       .  S
C906        H912   1.110       .  S
C913        C914   1.403       .  A
C913        C918   1.399       .  A
C913        H920   1.084       .  S
C914        C915   1.407       .  A
C915        C916   1.405       .  A
C915        C922   1.505       .  S
C916        C917   1.405       .  A
C916        H921   1.084       .  S
C917        C918   1.408       .  A
C918        C919   1.507       .  S
C919        H923   1.111       .  S
C919        H924   1.110       .  S
C919        H925   1.110       .  S
C922        H926   1.111       .  S
C922        H927   1.110       .  S
C922        H928   1.111       .  S
C929        C930   1.407       .  A
C929        C934   1.414       .  A
C929        H936   1.084       .  S
C930        C931   1.416       .  A
C931        C932   1.410       .  A
C931        C938   1.507       .  S
C932        C933   1.407       .  A
C932        H937   1.083       .  S
C933        C934   1.418       .  A
C934        C935   1.502       .  S
C935        H939   1.110       .  S
C935        H940   1.106       .  S
C935        H941   1.104       .  S
C938        H942   1.111       .  S
C938        H943   1.109       .  S
C938        H944   1.111       .  S
C945        C946   1.405       .  A
C945        C950   1.402       .  A
C945        H952   1.084       .  S
C946        C947   1.411       .  A
C947        C948   1.401       .  A
C947        C954   1.504       .  S
C948        C949   1.401       .  A
C948        H953   1.084       .  S
C949        C950   1.413       .  A
C950        C951   1.510       .  S
C951        H955   1.111       .  S
C951        H956   1.111       .  S
C951        H957   1.110       .  S
C954        H958   1.110       .  S
C954        H959   1.109       .  S
C954        H960   1.111       .  S
C961        C962   1.401       .  A
C961        C966   1.403       .  A
C961        H968   1.084       .  S
C963        C964   1.404   1_554  A
C963        C970   1.507       .  S
C964        C965   1.401       .  A
C964        H969   1.080       .  S
C965       N1064   1.441       .  S
C966       C1319   1.505       .  S
C967       C1318   1.505       .  S
C967        H971   1.110       .  S
C967        H972   1.110       .  S
C967        H973   1.108       .  S
C970        H974   1.111       .  S
C970        H975   1.109       .  S
C970        H976   1.111       .  S
C977        C982   1.408       .  A
C977        H984   1.084       .  S
C978        C979   1.413       .  A
C979        C980   1.404       .  A
C979        C986   1.509       .  S
C980        H985   1.084       .  S
C981        C982   1.420       .  A
C982        C983   1.507       .  S
C983        H987   1.111       .  S
C983        H988   1.110       .  S
C983        H989   1.109       .  S
C986        H990   1.107       .  S
C986        H991   1.109       .  S
C986        H992   1.111       .  S
C993        C994   1.405       .  A
C993        C998   1.409       .  A
C993       H1000   1.084       .  S
C994        C995   1.412       .  A
C995        C996   1.401       .  A
C995       C1002   1.507       .  S
C996        C997   1.402       .  A
C996       H1001   1.085       .  S
C997        C998   1.411       .  A
C998        C999   1.505       .  S
C999       H1003   1.111       .  S
C999       H1004   1.110       .  S
C999       H1357   1.110       .  S
C1002      H1006   1.110       .  S
C1002      H1007   1.106       .  S
C1002      H1008   1.111       .  S
H1005      C1351   1.110       .  S
C1009      C1010   1.400       .  A
C1009      C1014   1.402       .  A
C1009      H1016   1.082       .  S
C1010      C1011   1.409       .  A
C1011      C1012   1.402       .  A
C1011      C1018   1.507       .  S
C1012      C1013   1.407       .  A
C1012      H1017   1.084       .  S
C1013      C1014   1.415       .  A
C1014      C1015   1.507       .  S
C1015      H1019   1.111       .  S
C1015      H2428   1.110       .  S
C1015      H1021   1.110       .  S
C1018      H1022   1.110   1_554  S
C1018      H1023   1.109       .  S
C1018      H1024   1.111       .  S
H1020      C2423   1.110   1_455  S
C1025      C1026   1.411       .  A
C1025      C1030   1.411       .  A
C1025      H1032   1.084       .  S
C1026      C1027   1.417       .  A
C1027      C1028   1.405       .  A
C1027      C1034   1.509       .  S
C1028      C1029   1.405       .  A
C1028      H1033   1.083       .  S
C1029      C1030   1.410       .  A
C1030      C1031   1.503       .  S
C1031      H1035   1.111       .  S
C1031      H1036   1.107       .  S
C1031      H1037   1.106       .  S
C1034      H1038   1.109       .  S
C1034      H1039   1.111       .  S
C1034      H1040   1.111       .  S
C1041      C1042   1.403       .  A
C1041      C1398   1.406       .  A
C1041      H1048   1.085       .  S
C1042      C1395   1.402       .  A
C1043      C1394   1.404       .  A
C1043      C1044   1.403       .  A
C1043      C1050   1.507       .  S
C1044      C1045   1.415   1_556  A
C1044      H1049   1.083       .  S
C1045      C1046   1.418       .  A
C1046      C1393   1.408       .  A
C1046      C1047   1.505       .  S
C1047      H1403   1.111       .  S
C1047      H1052   1.108       .  S
C1047      H1405   1.110       .  S
C1050      H1054   1.110       .  S
C1050      H1407   1.110       .  S
C1050      H1056   1.111       .  S
H1051      C1399   1.111       .  S
H1053      C1399   1.110       .  S
H1055      C1402   1.111       .  S
N1057      C1058   1.362   1_556  A
N1057      C1381   1.447       .  S
C1058      C1394   1.476   1_554  S
C1059      C1060   1.365       .  A
C1059      H1062   1.083       .  S
C1060      C1061   1.380       .  A
C1060      H1063   1.082       .  S
C1061      C1362   1.473       .  S
N1064      C1068   1.357       .  A
N1064      C1065   1.359       .  A
C1065      C1346   1.481       .  S
C1065      C1066   1.381       .  A
C1066      C1067   1.374       .  A
C1066      H1069   1.082       .  S
C1067      C1068   1.382       .  A
C1067      H1070   1.082       .  S
C1068      C1330   1.481       .  S
Zr1071     O1072   2.440       .  S
Zr1071     O1073   2.456       .  S
Zr1071     O1074   2.469       .  S
Zr1071     O1077   2.475       .  S
Zr1071     O1079   2.388       .  S
Zr1071     O1080   2.390       .  S
Zr1071     O1081   2.420       .  S
O1072      H1128   0.990       .  S
O1072      H1136   0.990       .  S
O1073      C1093   1.288       .  A
O1074      C1095   1.290       .  A
O1075     Zr1085   2.398       .  S
O1076     Zr1084   2.436       .  S
O1076      C1095   1.285       .  A
O1077      C1094   1.292       .  A
O1078     Zr1086   2.412       .  S
O1078      C1093   1.279       .  A
O1079     Zr1084   2.401       .  S
O1079     Zr1086   2.382       .  S
O1080     Zr1086   2.387       .  S
O1080      H1115   0.966       .  S
O1081     Zr1084   2.409       .  S
O1081      H1118   0.965       .  S
O1082     Zr1085   2.397   1_554  S
O1082     Zr1101   2.400   1_554  S
Zr1083     O1108   2.440       .  S
Zr1083     O1102   2.408       .  S
Zr1083     O1110   2.431       .  S
Zr1083     O1098   2.403       .  S
Zr1083     O1089   2.391       .  S
Zr1083     O1091   2.383       .  S
Zr1083     O1092   2.376       .  S
Zr1084     O1103   2.437       .  S
Zr1084     O1096   2.434       .  S
Zr1084     O1097   2.455       .  S
Zr1084     O1090   2.395       .  S
Zr1085     O1087   2.436       .  S
Zr1085     O1109   2.434       .  S
Zr1085     O1111   2.424       .  S
Zr1085     O1089   2.383       .  S
Zr1085     O1092   2.373       .  S
Zr1086     O1112   2.435       .  S
Zr1086     O1113   2.437       .  S
Zr1086     O1088   2.436       .  S
Zr1086     O1090   2.389       .  S
O1087      H1124   0.990       .  S
O1088      H1119   0.990       .  S
O1088      H1133   0.990       .  S
O1090      H1116   0.965       .  S
O1091     Zr1101   2.370       .  S
O1092     Zr1101   2.360       .  S
O1092      H1117   0.965       .  S
C1093      C1253   1.475       .  S
C1094      C1397   1.498       .  S
C1095      C1282   1.497       .  S
O1096      H1132   0.990       .  S
O1098      C1099   1.281   1_556  A
C1099      C1349   1.478       .  S
O1100     Zr1101   2.438       .  S
O1100      H1129   0.991       .  S
Zr1101     O1104   2.439       .  S
Zr1101     O1105   2.439       .  S
Zr1101     O1106   2.443       .  S
O1102      C1107   1.279       .  A
O1103      H1120   0.990       .  S
O1103      H1135   0.990       .  S
O1104      H1121   0.990       .  S
O1105      H1125   0.990       .  S
O1105      H1134   0.990       .  S
O1106      C1107   1.287       .  A
C1107      C1301   1.475       .  S
O1108      H1127   0.990       .  S
O1108      H1131   0.990       .  S
O1109      H1123   0.990       .  S
O1109      H1130   0.990       .  S
O1110      C1114   1.283       .  A
O1111      C1114   1.282       .  A
O1112      H1122   0.990       .  S
O1113      H1126   0.990       .  S
C1114      C1269   1.467       .  S
N1137      C1141   1.359       .  A
N1137      C1138   1.364       .  A
N1137      C1250   1.448       .  S
C1138      C1234   1.488       .  S
C1138      C1139   1.382       .  A
C1139      C1140   1.365       .  A
C1139      H1142   1.083       .  S
C1140      C1141   1.379       .  A
C1140      H1143   1.082       .  S
C1141      C1266   1.473       .  S
N1144      C1148   1.365       .  A
N1144      C1145   1.370       .  A
N1144      C1285   1.455       .  S
C1145      C1218   1.478       .  S
C1145      C1146   1.381       .  A
C1146      C1147   1.359       .  A
C1146      H1149   1.083       .  S
C1147      C1148   1.378       .  A
C1147      H1150   1.083       .  S
C1148      C1298   1.477       .  S
Zr1151     O1152   2.440       .  S
Zr1151     O1153   2.432       .  S
Zr1151     O1154   2.427       .  S
Zr1151     O1157   2.428       .  S
Zr1151     O1159   2.382       .  S
Zr1151     O1160   2.380       .  S
Zr1151     O1161   2.407       .  S
Zr1151     O2570   2.406   1_455  S
O1152      H1208   0.990       .  S
O1152      H1216   0.990       .  S
O1153      C1173   1.283       .  A
O1154      C1175   1.281       .  A
O1155     Zr1165   2.422       .  S
O1155      C1174   1.283       .  A
O1156     Zr1164   2.432       .  S
O1156      C1175   1.285       .  A
O1157      C2582   1.283   1_455  A
O1158     Zr1166   2.430       .  S
O1159     Zr1164   2.390       .  S
O1160     Zr2573   2.379   1_455  S
O1160      H1195   0.967       .  S
O1161     Zr1164   2.393       .  S
O1161     Zr2589   2.401   1_455  S
O1161      H1198   0.967       .  S
O1162     Zr2559   2.408       .  S
O1162     Zr1165   2.389       .  S
O1162     Zr1181   2.409       .  S
Zr1163     O1892   2.441       .  S
Zr1163     O1182   2.446       .  S
Zr1163     O1882   2.454       .  S
Zr1163     O2578   2.413       .  S
Zr1163     O2579   2.383       .  S
Zr1163     O1172   2.386       .  S
Zr1164     O1183   2.435       .  S
Zr1164     O1176   2.435       .  S
Zr1164     O1177   2.429       .  S
Zr1164     O1170   2.393       .  S
Zr1164     O1171   2.392       .  S
Zr1165     O1167   2.436       .  S
Zr1165     O2568   2.376       .  S
Zr1165     O1172   2.395       .  S
Zr1166     O1192   2.435       .  S
Zr1166     O1193   2.436       .  S
Zr1166     O1168   2.436       .  S
Zr1166     O2577   2.399   1_455  S
O1167      H1204   0.990       .  S
O1168      H1199   0.990       .  S
O1168      H1213   0.990       .  S
O1169     Zr2574   2.401       .  S
O1170     Zr2571   2.409   1_455  S
O1171     Zr2571   2.385   1_455  S
O1171     Zr2589   2.378   1_455  S
O1172     Zr1181   2.381       .  S
O1172      H1197   0.966       .  S
C1173      C1314   1.475       .  S
C1174      C1365   1.480       .  S
C1174      O2565   1.284       .  A
C1175      C1237   1.468       .  S
O1176      H1212   0.990       .  S
O1177      C1179   1.283       .  A
O1178     Zr1867   2.448   1_455  S
C1179      C1333   1.493       .  S
O1180     Zr1181   2.438       .  S
O1180      H1209   0.991       .  S
Zr1181     O2592   2.439       .  S
Zr1181     O1185   2.440       .  S
Zr1181     O1186   2.435       .  S
Zr1181     O2569   2.400       .  S
Zr1181     O2579   2.373       .  S
O1182      C1187   1.286       .  A
O1183      H1200   0.990       .  S
O1183      H1215   0.990       .  S
O1184     Zr2589   2.438   1_455  S
O1184      H2609   0.990       .  S
O1185      H1205   0.990       .  S
O1185      H1214   0.990       .  S
O1186      C1187   1.284       .  A
C1187      C1378   1.496       .  S
O1188     Zr1867   2.440   1_565  S
O1188      H2615   0.990       .  S
O1188      H1211   0.990       .  S
O1189      H1203   0.990       .  S
O1189      H1210   0.990       .  S
O1190      C1194   1.293       .  A
O1191      C1194   1.277       .  A
O1192      H1202   0.990       .  S
O1193      H1206   0.990       .  S
C1194      C1221   1.492       .  S
H1201      O2592   0.990       .  S
H1207      O2596   0.990       .  S
C1217      C1218   1.401       .  A
C1217      C1222   1.411       .  A
C1217      H1224   1.084       .  S
C1218      C1219   1.418       .  A
C1219      C1220   1.401       .  A
C1219      C1226   1.507       .  S
C1220      C1221   1.400       .  A
C1220      H1225   1.085       .  S
C1221      C1222   1.424       .  A
C1222      C1223   1.508       .  S
C1223      H1227   1.111       .  S
C1223      H1228   1.110       .  S
C1226      H1230   1.106       .  S
C1226      H1231   1.110       .  S
C1226      H1232   1.110       .  S
C1233      C1234   1.409       .  A
C1233      C1238   1.407       .  A
C1233      H1240   1.084       .  S
C1234      C1235   1.417       .  A
C1235      C1236   1.401       .  A
C1235      C1242   1.500       .  S
C1236      C1237   1.396       .  A
C1236      H1241   1.085       .  S
C1237      C1238   1.408       .  A
C1238      C1239   1.505       .  S
C1239      H1243   1.111       .  S
C1239      H1244   1.110       .  S
C1239      H1245   1.110       .  S
C1242      H1246   1.107       .  S
C1242      H1247   1.107       .  S
C1242      H1248   1.111       .  S
C1249      C1250   1.408       .  A
C1249      C1254   1.404       .  A
C1249      H1256   1.083       .  S
C1250      C1251   1.419       .  A
C1251      C1252   1.406       .  A
C1251      C1258   1.502       .  S
C1252      C1253   1.401       .  A
C1252      H1257   1.085       .  S
C1253      C1254   1.409       .  A
C1254      C1255   1.508       .  S
C1255      H1259   1.111       .  S
C1255      H1260   1.110       .  S
C1255      H1261   1.110       .  S
C1258      H1262   1.110       .  S
C1258      H1263   1.101       .  S
C1258      H1264   1.110       .  S
C1265      C1266   1.403       .  A
C1265      C1270   1.397       .  A
C1265      H1272   1.083       .  S
C1266      C1267   1.408       .  A
C1267      C1268   1.407       .  A
C1267      C1274   1.505       .  S
C1268      C1269   1.406       .  A
C1268      H1273   1.084       .  S
C1269      C1270   1.407       .  A
C1270      C1271   1.507       .  S
C1271      H1275   1.111       .  S
C1271      H1276   1.110       .  S
C1271      H1277   1.110       .  S
C1274      H1278   1.111       .  S
C1274      H1279   1.110       .  S
C1274      H1280   1.111       .  S
C1281      C1282   1.407       .  A
C1281      C1286   1.413       .  A
C1281      H1288   1.084       .  S
C1282      C1283   1.416       .  A
C1283      C1284   1.408       .  A
C1283      C1290   1.508       .  S
C1284      C1285   1.408       .  A
C1284      H1289   1.084       .  S
C1285      C1286   1.417       .  A
C1286      C1287   1.503       .  S
C1287      H1291   1.111       .  S
C1287      H1292   1.105       .  S
C1287      H1293   1.105       .  S
C1290      H1294   1.111       .  S
C1290      H1295   1.109       .  S
C1290      H1296   1.111       .  S
C1297      C1298   1.405       .  A
C1297      C1302   1.404       .  A
C1297      H1304   1.084       .  S
C1298      C1299   1.411       .  A
C1299      C1300   1.401       .  A
C1299      C1306   1.503       .  S
C1300      C1301   1.402       .  A
C1300      H1305   1.084       .  S
C1301      C1302   1.414       .  A
C1302      C1303   1.509       .  S
C1303      H1307   1.111       .  S
C1303      H1308   1.111       .  S
C1303      H1309   1.110       .  S
C1306      H1310   1.109       .  S
C1306      H1311   1.108       .  S
C1306      H1312   1.111       .  S
C1313      C1314   1.401       .  A
C1313      C1318   1.405       .  A
C1313      H1320   1.084       .  S
C1315      C1316   1.402       .  A
C1315      C1322   1.507       .  S
C1316      C1317   1.400       .  A
C1316      H1321   1.079       .  S
C1319      H1323   1.110       .  S
C1319      H1324   1.111       .  S
C1319      H1325   1.108   1_554  S
C1322      H1326   1.111       .  S
C1322      H1327   1.109       .  S
C1322      H1328   1.111       .  S
C1329      C1334   1.409       .  A
C1329      H1336   1.084       .  S
C1330      C1331   1.413       .  A
C1331      C1332   1.404       .  A
C1331      C1338   1.509       .  S
C1332      H1337   1.084       .  S
C1333      C1334   1.422       .  A
C1334      C1335   1.509       .  S
C1335      H1339   1.111       .  S
C1335      H1340   1.111       .  S
C1335      H1341   1.108       .  S
C1338      H1342   1.108       .  S
C1338      H1343   1.109       .  S
C1338      H1344   1.111       .  S
C1345      C1346   1.406       .  A
C1345      C1350   1.410   1_556  A
C1345      H1352   1.084       .  S
C1346      C1347   1.412       .  A
C1347      C1348   1.401       .  A
C1347      C1354   1.508       .  S
C1348      C1349   1.403   1_556  A
C1348      H1353   1.085       .  S
C1349      C1350   1.412       .  A
C1350      C1351   1.506       .  S
C1351      H1355   1.111       .  S
C1351      H1356   1.111   1_554  S
C1354      H1358   1.110       .  S
C1354      H1359   1.106       .  S
C1354      H1360   1.111       .  S
C1361      C1362   1.402       .  A
C1361      C1366   1.404       .  A
C1361      H1368   1.082       .  S
C1362      C1363   1.408       .  A
C1363      C1364   1.400       .  A
C1363      C1370   1.507       .  S
C1364      C1365   1.406       .  A
C1364      H1369   1.084       .  S
C1365      C1366   1.415       .  A
C1366      C1367   1.507       .  S
C1367      H1371   1.111       .  S
C1367      H2780   1.110       .  S
C1367      H1373   1.110       .  S
C1370      H1374   1.110       .  S
C1370      H1375   1.109       .  S
C1370      H1376   1.111       .  S
H1372      C2775   1.110   1_455  S
C1377      C1378   1.411       .  A
C1377      C1382   1.411       .  A
C1377      H1384   1.084       .  S
C1378      C1379   1.418       .  A
C1379      C1380   1.406       .  A
C1379      C1386   1.509       .  S
C1380      C1381   1.405       .  A
C1380      H1385   1.084       .  S
C1381      C1382   1.410       .  A
C1382      C1383   1.503       .  S
C1383      H1387   1.111       .  S
C1383      H1388   1.107       .  S
C1383      H1389   1.106       .  S
C1386      H1390   1.109       .  S
C1386      H1391   1.111       .  S
C1386      H1392   1.111       .  S
C1393      C1394   1.405   1_554  A
C1393      H1400   1.085       .  S
C1395      C1396   1.402       .  A
C1395      C1402   1.507       .  S
C1396      C1397   1.416       .  A
C1396      H1401   1.083       .  S
C1397      C1398   1.417       .  A
C1398      C1399   1.504       .  S
C1399      H1404   1.108       .  S
C1402      H1406   1.110       .  S
C1402      H1408   1.111       .  S
N1409      C1765   1.357       .  A
N1409      C1410   1.361       .  A
N1409      C1733   1.448       .  S
C1410      C1746   1.478       .  S
C1410      C1763   1.381       .  A
C1411      C1762   1.381       .  A
C1411      C1412   1.365       .  A
C1411      H1414   1.083       .  S
C1412      C1413   1.380       .  A
C1412      H1415   1.083       .  S
C1413      N1761   1.357   1_554  A
C1413      C1714   1.472       .  S
N1416      C1420   1.355       .  A
N1416      C1417   1.356       .  A
N1416      C2021   1.438       .  S
C1417      C1698   1.480       .  S
C1417      C1418   1.381       .  A
C1418      C1419   1.375       .  A
C1418      H1421   1.082       .  S
C1419      C1420   1.382       .  A
C1419      H1422   1.082       .  S
C1420      C1682   1.479       .  S
Zr1423     O1424   2.440       .  S
Zr1423     O1425   2.457       .  S
Zr1423     O1426   2.471       .  S
Zr1423     O1429   2.478       .  S
Zr1423     O1431   2.391       .  S
Zr1423     O1432   2.386       .  S
Zr1423     O1433   2.421       .  S
Zr1423     O1786   2.405       .  S
O1424      H1480   0.991       .  S
O1424      H1488   0.990       .  S
O1425      C1445   1.287       .  A
O1426      C1447   1.290       .  A
O1427     Zr1437   2.395       .  S
O1427      C1798   1.278       .  A
O1428     Zr1436   2.435       .  S
O1428      C1447   1.284       .  A
O1429      C1446   1.293       .  A
O1430     Zr1438   2.415       .  S
O1430      C1445   1.279       .  A
O1431     Zr1436   2.405       .  S
O1431     Zr1438   2.382       .  S
O1432     Zr1789   2.388   1_554  S
O1432     Zr1438   2.381       .  S
O1432      H1467   0.966       .  S
O1433     Zr1436   2.407       .  S
O1433     Zr1805   2.394   1_554  S
O1433      H1470   0.965       .  S
O1434     Zr1775   2.403       .  S
O1434     Zr1437   2.393       .  S
O1434     Zr1453   2.397       .  S
Zr1435     O1460   2.440       .  S
Zr1435     O1454   2.409       .  S
Zr1435     O1462   2.430       .  S
Zr1435     O1450   2.401       .  S
Zr1435     O1441   2.391       .  S
Zr1435     O1794   2.402       .  S
Zr1435     O1443   2.385       .  S
Zr1435     O1444   2.374       .  S
Zr1436     O1455   2.438       .  S
Zr1436     O1448   2.434       .  S
Zr1436     O1449   2.461       .  S
Zr1436     O1442   2.396       .  S
Zr1436     O1795   2.385   1_554  S
Zr1437     O1439   2.436       .  S
Zr1437     O1461   2.435       .  S
Zr1437     O1463   2.412       .  S
Zr1437     O1784   2.383       .  S
Zr1437     O1441   2.382       .  S
Zr1437     O1444   2.372       .  S
Zr1438     O1464   2.438       .  S
Zr1438     O1465   2.435       .  S
Zr1438     O1440   2.437       .  S
Zr1438     O1793   2.401   1_554  S
Zr1438     O1442   2.396       .  S
O1439      H1476   0.991       .  S
O1440      H1471   0.990       .  S
O1440      H1485   0.990       .  S
O1441     Zr1790   2.399       .  S
O1442     Zr1787   2.406   1_554  S
O1442      H1468   0.965       .  S
O1443     Zr1788   2.391       .  S
O1443     Zr1453   2.374       .  S
O1444     Zr1453   2.360       .  S
O1444      H1469   0.966       .  S
C1445      C1605   1.479       .  S
C1446      C1749   1.498       .  S
C1446      O1779   1.276   1_554  A
C1447      C1634   1.498       .  S
O1448      H1484   0.990       .  S
O1449      C1803   1.289       .  A
O1450      C1451   1.280       .  A
C1451      C1701   1.476       .  S
C1451      O1801   1.290       .  A
O1452     Zr1453   2.439       .  S
O1452      H1481   0.990       .  S
Zr1453     O1456   2.438       .  S
Zr1453     O1457   2.440       .  S
Zr1453     O1458   2.439       .  S
Zr1453     O1785   2.396       .  S
O1454      C1459   1.279       .  A
O1455      H1472   0.990       .  S
O1455      H1487   0.990       .  S
O1456      H1473   0.990       .  S
O1457      H1477   0.990       .  S
O1457      H1486   0.990       .  S
O1458      C1459   1.286       .  A
C1459      C1653   1.473       .  S
O1460      H1479   0.990       .  S
O1460      H1483   0.990       .  S
O1461      H1475   0.990       .  S
O1461      H1482   0.990       .  S
O1462      C1466   1.283       .  A
O1463      C1466   1.279       .  A
O1464      H1474   0.990       .  S
O1465      H1478   0.990       .  S
C1466      C1621   1.460       .  S
N1489      C1493   1.358       .  A
N1489      C1490   1.363       .  A
N1489      C1602   1.448       .  S
C1490      C1586   1.487       .  S
C1490      C1491   1.382       .  A
C1491      C1492   1.364       .  A
C1491      H1494   1.083       .  S
C1492      C1493   1.379       .  A
C1492      H1495   1.083       .  S
C1493      C1618   1.468       .  S
N1496      C1500   1.365       .  A
N1496      C1497   1.367       .  A
N1496      C1637   1.456       .  S
C1497      C1570   1.473       .  S
C1497      C1498   1.380       .  A
C1498      C1499   1.358       .  A
C1498      H1501   1.083       .  S
C1499      C1500   1.379       .  A
C1499      H1502   1.083       .  S
C1500      C1650   1.476       .  S
Zr1503     O1504   2.439       .  S
Zr1503     O1505   2.435       .  S
Zr1503     O1506   2.440       .  S
Zr1503     O1509   2.439       .  S
Zr1503     O1511   2.384       .  S
Zr1503     O1512   2.380       .  S
Zr1503     O1513   2.408       .  S
O1504      H1560   0.990       .  S
O1504      H1568   0.990       .  S
O1505      C1525   1.284       .  A
O1506      C1527   1.284       .  A
O1507     Zr1517   2.426       .  S
O1507      C1526   1.284       .  A
O1508     Zr1516   2.431       .  S
O1508      C1527   1.284       .  A
O1510     Zr1518   2.435       .  S
O1510      C2229   1.284       .  A
O1511     Zr1516   2.393       .  S
O1511     Zr2222   2.378   1_545  S
O1512     Zr2222   2.371   1_545  S
O1512      H1547   0.966       .  S
O1513     Zr1516   2.396       .  S
O1513      H1550   0.966       .  S
O1514     Zr1517   2.389       .  S
O1514     Zr1533   2.408       .  S
Zr1515     O1534   2.453       .  S
Zr1515     O2246   2.461   1_545  S
Zr1515     O2225   2.406   1_545  S
Zr1515     O1524   2.381       .  S
Zr1516     O1535   2.437       .  S
Zr1516     O1528   2.435       .  S
Zr1516     O1529   2.435       .  S
Zr1516     O1522   2.394       .  S
Zr1516     O1523   2.392       .  S
Zr1517     O1519   2.434       .  S
Zr1517     O2245   2.437   1_545  S
Zr1517     O2247   2.406   1_545  S
Zr1517     O2225   2.395   1_545  S
Zr1517     O1524   2.394       .  S
Zr1518     O1544   2.435       .  S
Zr1518     O1545   2.435       .  S
Zr1518     O1520   2.437       .  S
Zr1518     O2215   2.375       .  S
Zr1518     O2216   2.363       .  S
Zr1518     O2226   2.394       .  S
O1519      H1556   0.990       .  S
O1520      H1551   0.990       .  S
O1520      H1565   0.990       .  S
O1521     Zr2219   2.402       .  S
O1521     Zr2221   2.394       .  S
O1522     Zr2222   2.392   1_545  S
O1522      H2252   0.966   1_545  S
O1524     Zr1533   2.382       .  S
O1524      H1549   0.966       .  S
C1525      C1666   1.472   1_545  S
C1525      O2214   1.282   1_545  A
C1526      C1717   1.480       .  S
C1527      C1589   1.472       .  S
O1528      H1564   0.990       .  S
O1529      C1531   1.285       .  A
O1530      C2235   1.288       .  A
C1531      C1685   1.493       .  S
C1531      O2234   1.289       .  A
O1532     Zr1533   2.438       .  S
O1532      H1561   0.990       .  S
Zr1533     O1537   2.439       .  S
Zr1533     O1538   2.436       .  S
O1534      C1539   1.288       .  A
O1535      H1552   0.990       .  S
O1535      H1567   0.990       .  S
O1537      H1557   0.990       .  S
O1537      H1566   0.990       .  S
O1538      C1539   1.284       .  A
C1539      C1730   1.500       .  S
O1540      H1563   0.991       .  S
O1541     Zr2221   2.438       .  S
O1541      H1555   0.990       .  S
O1541      H1562   0.990       .  S
O1542     Zr2219   2.470       .  S
O1542      C1546   1.292       .  A
O1543     Zr2221   2.401       .  S
O1543      C1546   1.277       .  A
O1544      H1554   0.990       .  S
O1545      H1558   0.990       .  S
C1546      C1573   1.490       .  S
H1548      O2226   0.966       .  S
C1569      C1570   1.400       .  A
C1569      C1574   1.410       .  A
C1569      H1576   1.084       .  S
C1570      C1571   1.416       .  A
C1571      C1572   1.399       .  A
C1571      C1578   1.508       .  S
C1572      C1573   1.401       .  A
C1572      H1577   1.085       .  S
C1573      C1574   1.424       .  A
C1574      C1575   1.508       .  S
C1575      H1579   1.111       .  S
C1575      H1580   1.110       .  S
C1575      H2285   1.110       .  S
C1578      H1582   1.107       .  S
C1578      H1583   1.110       .  S
C1578      H1584   1.110       .  S
H1581      C2279   1.111   1_545  S
C1585      C1586   1.407       .  A
C1585      C1590   1.407       .  A
C1585      H1592   1.084       .  S
C1586      C1587   1.418       .  A
C1587      C1588   1.403       .  A
C1587      C1594   1.500       .  S
C1588      C1589   1.397       .  A
C1588      H1593   1.085       .  S
C1589      C1590   1.408       .  A
C1590      C1591   1.505       .  S
C1591      H1595   1.111       .  S
C1591      H1596   1.110       .  S
C1591      H1597   1.110       .  S
C1594      H1598   1.107       .  S
C1594      H1599   1.106       .  S
C1594      H1600   1.111       .  S
C1601      C1602   1.408       .  A
C1601      C1606   1.405       .  A
C1601      H1608   1.083       .  S
C1602      C1603   1.419       .  A
C1603      C1604   1.407       .  A
C1603      C1610   1.503       .  S
C1604      C1605   1.402       .  A
C1604      H1609   1.085       .  S
C1605      C1606   1.411       .  A
C1606      C1607   1.508       .  S
C1607      H1611   1.111       .  S
C1607      H1612   1.110       .  S
C1607      H1613   1.111       .  S
C1610      H1614   1.110       .  S
C1610      H1615   1.101       .  S
C1610      H1616   1.111       .  S
C1617      C1618   1.403       .  A
C1617      C1622   1.395       .  A
C1617      H1624   1.082       .  S
C1618      C1619   1.407       .  A
C1619      C1620   1.404       .  A
C1619      C1626   1.505       .  S
C1620      C1621   1.405       .  A
C1620      H1625   1.084       .  S
C1621      C1622   1.406       .  A
C1622      C1623   1.508       .  S
C1623      H1627   1.111       .  S
C1623      H1628   1.109       .  S
C1623      H1629   1.111       .  S
C1626      H1630   1.110       .  S
C1626      H1631   1.111       .  S
C1626      H1632   1.111       .  S
C1633      C1634   1.407       .  A
C1633      C1638   1.414       .  A
C1633      H1640   1.084       .  S
C1634      C1635   1.417       .  A
C1635      C1636   1.408       .  A
C1635      C1642   1.508       .  S
C1636      C1637   1.406       .  A
C1636      H1641   1.084       .  S
C1637      C1638   1.419       .  A
C1638      C1639   1.504       .  S
C1639      H1643   1.111       .  S
C1639      H1644   1.105       .  S
C1639      H1645   1.104       .  S
C1642      H1646   1.111       .  S
C1642      H1647   1.109       .  S
C1642      H1648   1.111       .  S
C1649      C1650   1.406       .  A
C1649      C1654   1.404       .  A
C1649      H1656   1.084       .  S
C1650      C1651   1.411       .  A
C1651      C1652   1.400       .  A
C1651      C1658   1.503       .  S
C1652      C1653   1.401       .  A
C1652      H1657   1.084       .  S
C1653      C1654   1.413       .  A
C1654      C1655   1.509       .  S
C1655      H1659   1.111       .  S
C1655      H1660   1.110       .  S
C1655      H1661   1.110       .  S
C1658      H1662   1.109       .  S
C1658      H1663   1.108       .  S
C1658      H1664   1.111       .  S
C1665      C1666   1.399   1_545  A
C1665      C1670   1.401   1_545  A
C1665      H1672   1.085       .  S
C1666      C2371   1.414       .  A
C1667      C2370   1.412       .  A
C1667      C1668   1.405   1_554  A
C1667      C1674   1.507       .  S
C1668      C1669   1.403       .  A
C1668      H1673   1.079       .  S
C1669      N1768   1.444       .  S
C1669      C2374   1.416   1_556  A
C1670      C2373   1.414   1_554  A
C1670      C2023   1.506   1_565  S
C1671      C2022   1.505   1_545  S
C1671      H1675   1.110       .  S
C1671      H1676   1.110       .  S
C1671      H1677   1.108       .  S
C1674      H1678   1.111       .  S
C1674      H1679   1.110       .  S
C1674      H1680   1.111       .  S
C1681      C2386   1.400   1_545  A
C1681      C1686   1.409       .  A
C1681      H1688   1.084       .  S
C1682      C2385   1.399       .  A
C1682      C1683   1.412       .  A
C1683      C1684   1.404       .  A
C1683      C1690   1.508       .  S
C1684      C2389   1.405       .  A
C1684      H1689   1.084       .  S
C1685      C2388   1.406   1_545  A
C1685      C1686   1.421       .  A
C1686      C1687   1.507       .  S
C1687      H1691   1.111       .  S
C1687      H1692   1.110       .  S
C1687      H1693   1.108       .  S
C1690      H1694   1.109       .  S
C1690      H1695   1.109       .  S
C1690      H1696   1.111       .  S
C1697      C1698   1.404       .  A
C1697      C1702   1.408       .  A
C1697      H1704   1.084       .  S
C1698      C1699   1.413       .  A
C1699      C1700   1.401       .  A
C1699      C1706   1.508       .  S
C1700      C1701   1.403       .  A
C1700      H1705   1.085       .  S
C1701      C1702   1.411       .  A
C1702      C1703   1.505       .  S
C1703      H1707   1.111       .  S
C1703      H1708   1.110       .  S
C1703      H2061   1.110       .  S
C1706      H1710   1.110       .  S
C1706      H1711   1.105       .  S
C1706      H1712   1.111       .  S
H1709      C2055   1.110       .  S
C1713      C1714   1.401       .  A
C1713      C1718   1.402       .  A
C1713      H1720   1.082       .  S
C1714      C1715   1.408       .  A
C1715      C1716   1.402       .  A
C1715      C1722   1.506       .  S
C1716      C1717   1.406       .  A
C1716      H1721   1.084       .  S
C1717      C1718   1.415       .  A
C1718      C1719   1.506       .  S
C1719      H1723   1.111       .  S
C1719      H1725   1.110       .  S
C1722      H1726   1.110   1_554  S
C1722      H1727   1.109       .  S
C1722      H1728   1.111   1_545  S
C1729      C1730   1.412       .  A
C1729      C1734   1.412       .  A
C1729      H1736   1.084       .  S
C1730      C1731   1.419       .  A
C1731      C1732   1.407       .  A
C1731      C1738   1.509       .  S
C1732      C1733   1.406       .  A
C1732      H1737   1.084       .  S
C1733      C1734   1.409       .  A
C1734      C1735   1.503       .  S
C1735      H1739   1.111       .  S
C1735      H1740   1.107       .  S
C1735      H1741   1.107       .  S
C1738      H1742   1.110       .  S
C1738      H1743   1.110       .  S
C1738      H1744   1.111       .  S
C1745      C1746   1.405       .  A
C1745      C2102   1.409       .  A
C1745      H1752   1.084       .  S
C1746      C2099   1.403       .  A
C1747      C2098   1.402       .  A
C1747      C1748   1.401       .  A
C1747      C1754   1.507       .  S
C1748      C1749   1.417   1_556  A
C1748      H1753   1.083       .  S
C1749      C1750   1.418       .  A
C1750      C2097   1.407       .  A
C1750      C1751   1.505       .  S
C1751      H2107   1.111       .  S
C1751      H1756   1.108       .  S
C1751      H2109   1.110       .  S
C1754      H1758   1.110       .  S
C1754      H2111   1.111       .  S
C1754      H1760   1.111       .  S
H1755      C2103   1.111       .  S
H1757      C2103   1.111       .  S
H1759      C2106   1.111       .  S
N1761      C1762   1.359   1_556  A
N1761      C2085   1.446       .  S
C1762      C2098   1.472   1_554  S
C1763      C1764   1.366       .  A
C1763      H1766   1.083       .  S
C1764      C1765   1.380       .  A
C1764      H1767   1.083       .  S
C1765      C2066   1.473       .  S
N1768      C1772   1.359       .  A
N1768      C1769   1.360       .  A
C1769      C2050   1.483       .  S
C1769      C1770   1.381       .  A
C1770      C1771   1.373       .  A
C1770      H1773   1.082       .  S
C1771      C1772   1.382       .  A
C1771      H1774   1.082       .  S
C1772      C2034   1.481       .  S
Zr1775     O1776   2.439       .  S
Zr1775     O1777   2.454       .  S
Zr1775     O1778   2.459       .  S
Zr1775     O1781   2.474       .  S
Zr1775     O1783   2.392       .  S
Zr1775     O1784   2.387       .  S
Zr1775     O1785   2.420       .  S
O1776      H1832   0.990       .  S
O1776      H1840   0.990       .  S
O1777      C1797   1.288       .  A
O1778      C1799   1.288       .  A
O1779     Zr1789   2.383       .  S
O1780     Zr1788   2.444       .  S
O1780      C1799   1.286       .  A
O1781      C1798   1.292       .  A
O1782     Zr1790   2.412       .  S
O1782      C1797   1.279       .  A
O1783     Zr1788   2.402       .  S
O1783     Zr1790   2.381       .  S
O1784     Zr1790   2.385       .  S
O1784      H1819   0.967       .  S
O1785     Zr1788   2.407       .  S
O1785      H1822   0.965       .  S
O1786     Zr1789   2.394   1_554  S
O1786     Zr1805   2.395   1_554  S
Zr1787     O1812   2.440       .  S
Zr1787     O1806   2.413       .  S
Zr1787     O1814   2.435       .  S
Zr1787     O1802   2.406       .  S
Zr1787     O1793   2.394       .  S
Zr1787     O1795   2.382       .  S
Zr1787     O1796   2.373       .  S
Zr1788     O1807   2.437       .  S
Zr1788     O1800   2.435       .  S
Zr1788     O1801   2.464       .  S
Zr1788     O1794   2.396       .  S
Zr1789     O1791   2.437       .  S
Zr1789     O1813   2.437       .  S
Zr1789     O1815   2.415       .  S
Zr1789     O1793   2.381       .  S
Zr1789     O1796   2.368       .  S
Zr1790     O1816   2.436       .  S
Zr1790     O1817   2.436       .  S
Zr1790     O1792   2.438       .  S
Zr1790     O1794   2.390       .  S
O1791      H1828   0.990       .  S
O1792      H1823   0.990       .  S
O1792      H1837   0.990       .  S
O1794      H1820   0.965       .  S
O1795     Zr1805   2.371       .  S
O1796     Zr1805   2.364       .  S
O1796      H1821   0.965       .  S
C1797      C1957   1.474       .  S
C1798      C2101   1.502       .  S
C1799      C1986   1.497       .  S
O1800      H1836   0.990       .  S
O1802      C1803   1.281   1_556  A
C1803      C2053   1.477       .  S
O1804     Zr1805   2.438   1_554  S
O1804      H1833   0.990   1_554  S
Zr1805     O1808   2.437       .  S
Zr1805     O1809   2.439       .  S
Zr1805     O1810   2.440       .  S
O1806      C1811   1.280       .  A
O1807      H1824   0.990       .  S
O1807      H1839   0.990       .  S
O1808      H1825   0.990       .  S
O1809      H1829   0.990       .  S
O1809      H1838   0.990       .  S
O1810      C1811   1.287       .  A
C1811      C2005   1.477       .  S
O1812      H1831   0.990       .  S
O1812      H1835   0.990       .  S
O1813      H1827   0.990       .  S
O1813      H1834   0.990       .  S
O1814      C1818   1.284       .  A
O1815      C1818   1.280       .  A
O1816      H1826   0.990       .  S
O1817      H1830   0.990       .  S
C1818      C1973   1.465       .  S
N1841      C1845   1.359       .  A
N1841      C1842   1.366       .  A
N1841      C1954   1.449       .  S
C1842      C1938   1.493       .  S
C1842      C1843   1.383       .  A
C1843      C1844   1.365       .  A
C1843      H1846   1.082       .  S
C1844      C1845   1.378       .  A
C1844      H1847   1.082       .  S
C1845      C1970   1.472       .  S
N1848      C1852   1.363       .  A
N1848      C1849   1.367       .  A
N1848      C1989   1.454       .  S
C1849      C1922   1.474       .  S
C1849      C1850   1.380       .  A
C1850      C1851   1.359       .  A
C1850      H1853   1.083       .  S
C1851      C1852   1.378       .  A
C1851      H1854   1.083       .  S
C1852      C2002   1.474       .  S
Zr1855     O1856   2.438       .  S
Zr1855     O1857   2.428       .  S
Zr1855     O1858   2.440       .  S
Zr1855     O1861   2.442       .  S
Zr1855     O1863   2.385       .  S
Zr1855     O1864   2.381       .  S
Zr1855     O1865   2.407       .  S
O1856      H1912   0.990       .  S
O1856      H1920   0.990       .  S
O1857      C1877   1.282       .  A
O1858      C1879   1.284       .  A
O1859     Zr1869   2.417       .  S
O1859      C1878   1.282       .  A
O1860     Zr1868   2.436       .  S
O1860      C1879   1.285       .  A
O1862     Zr1870   2.430       .  S
O1862      C2581   1.283       .  A
O1863     Zr1868   2.393       .  S
O1863     Zr2574   2.375   1_545  S
O1864     Zr2574   2.367   1_545  S
O1864      H1899   0.967       .  S
O1865     Zr1868   2.393       .  S
O1865      H1902   0.966       .  S
O1866     Zr1869   2.388       .  S
O1866     Zr1885   2.403       .  S
Zr1867     O1886   2.448       .  S
Zr1867     O2598   2.467   1_545  S
Zr1867     O2577   2.405   1_545  S
Zr1867     O1876   2.379       .  S
Zr1868     O1887   2.436       .  S
Zr1868     O1880   2.434       .  S
Zr1868     O1881   2.435       .  S
Zr1868     O1874   2.399       .  S
Zr1868     O1875   2.390       .  S
Zr1869     O1871   2.435       .  S
Zr1869     O2597   2.438   1_545  S
Zr1869     O2599   2.401   1_545  S
Zr1869     O2577   2.396   1_545  S
Zr1869     O1876   2.392       .  S
Zr1870     O1896   2.435       .  S
Zr1870     O1897   2.436       .  S
Zr1870     O1872   2.436       .  S
Zr1870     O2567   2.378       .  S
Zr1870     O2568   2.369       .  S
Zr1870     O2578   2.394       .  S
O1871      H1908   0.990       .  S
O1872      H1903   0.990       .  S
O1872      H1917   0.990       .  S
O1873     Zr2571   2.403       .  S
O1873     Zr2573   2.394       .  S
O1874     Zr2574   2.394   1_545  S
O1874      H2604   0.966   1_545  S
O1876     Zr1885   2.379       .  S
O1876      H1901   0.966       .  S
C1877      C2018   1.471   1_545  S
C1877      O2566   1.283   1_545  A
C1878      C2069   1.479       .  S
C1879      C1941   1.475       .  S
O1880      H1916   0.990       .  S
O1881      C1883   1.285       .  A
O1882      C2587   1.290       .  A
C1883      C2037   1.489       .  S
C1883      O2586   1.288       .  A
O1884     Zr1885   2.437       .  S
O1884      H1913   0.990       .  S
Zr1885     O1889   2.440       .  S
Zr1885     O1890   2.430       .  S
O1886      C1891   1.287       .  A
O1887      H1904   0.990       .  S
O1887      H1919   0.990       .  S
O1889      H1909   0.990       .  S
O1889      H1918   0.990       .  S
O1890      C1891   1.283       .  A
C1891      C2082   1.495       .  S
O1892      H1915   0.991       .  S
O1893     Zr2573   2.437       .  S
O1893      H1907   0.990       .  S
O1893      H1914   0.990       .  S
O1894     Zr2571   2.466       .  S
O1894      C1898   1.291       .  A
O1895     Zr2573   2.405       .  S
O1895      C1898   1.278       .  A
O1896      H1906   0.990       .  S
O1897      H1910   0.990       .  S
C1898      C1925   1.489       .  S
H1900      O2578   0.966       .  S
C1921      C1922   1.401       .  A
C1921      C1926   1.409       .  A
C1921      H1928   1.084       .  S
C1922      C1923   1.418       .  A
C1923      C1924   1.400       .  A
C1923      C1930   1.508       .  S
C1924      C1925   1.401       .  A
C1924      H1929   1.085       .  S
C1925      C1926   1.421       .  A
C1926      C1927   1.508       .  S
C1927      H1931   1.111       .  S
C1927      H1932   1.109       .  S
C1927      H2637   1.111       .  S
C1930      H1934   1.107       .  S
C1930      H1935   1.111       .  S
C1930      H1936   1.110       .  S
H1933      C2631   1.111   1_545  S
C1937      C1938   1.409       .  A
C1937      C1942   1.407       .  A
C1937      H1944   1.084       .  S
C1938      C1939   1.419       .  A
C1939      C1940   1.405       .  A
C1939      C1946   1.501       .  S
C1940      C1941   1.398       .  A
C1940      H1945   1.085       .  S
C1941      C1942   1.408       .  A
C1942      C1943   1.506       .  S
C1943      H1947   1.111       .  S
C1943      H1948   1.110       .  S
C1943      H1949   1.111       .  S
C1946      H1950   1.107       .  S
C1946      H1951   1.108       .  S
C1946      H1952   1.111       .  S
C1953      C1954   1.409       .  A
C1953      C1958   1.404       .  A
C1953      H1960   1.083       .  S
C1954      C1955   1.420       .  A
C1955      C1956   1.406       .  A
C1955      C1962   1.503       .  S
C1956      C1957   1.401       .  A
C1956      H1961   1.085       .  S
C1957      C1958   1.408       .  A
C1958      C1959   1.507       .  S
C1959      H1963   1.111       .  S
C1959      H1964   1.110       .  S
C1959      H1965   1.110       .  S
C1962      H1966   1.111       .  S
C1962      H1967   1.101       .  S
C1962      H1968   1.110       .  S
C1969      C1970   1.403       .  A
C1969      C1974   1.398       .  A
C1969      H1976   1.083       .  S
C1970      C1971   1.408       .  A
C1971      C1972   1.406       .  A
C1971      C1978   1.505       .  S
C1972      C1973   1.405       .  A
C1972      H1977   1.084       .  S
C1973      C1974   1.406       .  A
C1974      C1975   1.507       .  S
C1975      H1979   1.111       .  S
C1975      H1980   1.110       .  S
C1975      H1981   1.111       .  S
C1978      H1982   1.110       .  S
C1978      H1983   1.110       .  S
C1978      H1984   1.111       .  S
C1985      C1986   1.409       .  A
C1985      C1990   1.414       .  A
C1985      H1992   1.084       .  S
C1986      C1987   1.415       .  A
C1987      C1988   1.407       .  A
C1987      C1994   1.508       .  S
C1988      C1989   1.407       .  A
C1988      H1993   1.083       .  S
C1989      C1990   1.417       .  A
C1990      C1991   1.504       .  S
C1991      H1995   1.111       .  S
C1991      H1996   1.106       .  S
C1991      H1997   1.105       .  S
C1994      H1998   1.111       .  S
C1994      H1999   1.109       .  S
C1994      H2000   1.111       .  S
C2001      C2002   1.404       .  A
C2001      C2006   1.404       .  A
C2001      H2008   1.084       .  S
C2002      C2003   1.410       .  A
C2003      C2004   1.400       .  A
C2003      C2010   1.504       .  S
C2004      C2005   1.402       .  A
C2004      H2009   1.084       .  S
C2005      C2006   1.416       .  A
C2006      C2007   1.509       .  S
C2007      H2011   1.111       .  S
C2007      H2012   1.110       .  S
C2007      H2013   1.110       .  S
C2010      H2014   1.109       .  S
C2010      H2015   1.108       .  S
C2010      H2016   1.111       .  S
C2017      C2018   1.401   1_545  A
C2017      C2022   1.403   1_545  A
C2017      H2024   1.084       .  S
C2018      C2723   1.413       .  A
C2019      C2722   1.413       .  A
C2019      C2020   1.403       .  A
C2019      C2026   1.507       .  S
C2020      C2021   1.400       .  A
C2020      H2025   1.082       .  S
C2021      C2726   1.413       .  A
C2022      C2725   1.414       .  A
C2023      H2027   1.110       .  S
C2023      H2028   1.110       .  S
C2023      H2029   1.108   1_544  S
C2026      H2030   1.111       .  S
C2026      H2031   1.109       .  S
C2026      H2032   1.111       .  S
C2033      C2738   1.400   1_545  A
C2033      C2038   1.409       .  A
C2033      H2040   1.084       .  S
C2034      C2737   1.400       .  A
C2034      C2035   1.414       .  A
C2035      C2036   1.405       .  A
C2035      C2042   1.509       .  S
C2036      C2741   1.405       .  A
C2036      H2041   1.084       .  S
C2037      C2740   1.405   1_545  A
C2037      C2038   1.420       .  A
C2038      C2039   1.508       .  S
C2039      H2043   1.111       .  S
C2039      H2044   1.110       .  S
C2039      H2045   1.109       .  S
C2042      H2046   1.107       .  S
C2042      H2047   1.109       .  S
C2042      H2048   1.111       .  S
C2049      C2050   1.407       .  A
C2049      C2054   1.410   1_556  A
C2049      H2056   1.084       .  S
C2050      C2051   1.413       .  A
C2051      C2052   1.401       .  A
C2051      C2058   1.507       .  S
C2052      C2053   1.402   1_556  A
C2052      H2057   1.085   1_556  S
C2053      C2054   1.411       .  A
C2054      C2055   1.506       .  S
C2055      H2059   1.111       .  S
C2055      H2060   1.110   1_554  S
C2058      H2062   1.110       .  S
C2058      H2063   1.105       .  S
C2058      H2064   1.111       .  S
C2065      C2066   1.401       .  A
C2065      C2070   1.402       .  A
C2065      H2072   1.082       .  S
C2066      C2067   1.408       .  A
C2067      C2068   1.402       .  A
C2067      C2074   1.506       .  S
C2068      C2069   1.407       .  A
C2068      H2073   1.084       .  S
C2069      C2070   1.414       .  A
C2070      C2071   1.506       .  S
C2071      H2075   1.111       .  S
C2071      H2077   1.110       .  S
C2074      H2078   1.110       .  S
C2074      H2079   1.109       .  S
C2074      H2080   1.111   1_545  S
C2081      C2082   1.410       .  A
C2081      C2086   1.410       .  A
C2081      H2088   1.084       .  S
C2082      C2083   1.417       .  A
C2083      C2084   1.406       .  A
C2083      C2090   1.508       .  S
C2084      C2085   1.405       .  A
C2084      H2089   1.084       .  S
C2085      C2086   1.410       .  A
C2086      C2087   1.503       .  S
C2087      H2091   1.111       .  S
C2087      H2092   1.107       .  S
C2087      H2093   1.107       .  S
C2090      H2094   1.109       .  S
C2090      H2095   1.111       .  S
C2090      H2096   1.111       .  S
C2097      C2098   1.404   1_554  A
C2097      H2104   1.085       .  S
C2099      C2100   1.403       .  A
C2099      C2106   1.507       .  S
C2100      C2101   1.416       .  A
C2100      H2105   1.083       .  S
C2101      C2102   1.419       .  A
C2102      C2103   1.505       .  S
C2103      H2108   1.109       .  S
C2106      H2110   1.110       .  S
C2106      H2112   1.111       .  S
N2113      C2469   1.357       .  A
N2113      C2114   1.359       .  A
N2113      C2437   1.446       .  S
C2114      C2450   1.475       .  S
C2114      C2467   1.380       .  A
C2115      C2466   1.381       .  A
C2115      C2116   1.364       .  A
C2115      H2118   1.083       .  S
C2116      C2117   1.380       .  A
C2116      H2119   1.082       .  S
C2117      N2465   1.357   1_554  A
C2117      C2418   1.471       .  S
N2120      C2124   1.356       .  A
N2120      C2121   1.358       .  A
N2120      C2725   1.438       .  S
C2121      C2402   1.482       .  S
C2121      C2122   1.381       .  A
C2122      C2123   1.375       .  A
C2122      H2125   1.082       .  S
C2123      C2124   1.382       .  A
C2123      H2126   1.082       .  S
C2124      C2386   1.482       .  S
Zr2127     O2128   2.439       .  S
Zr2127     O2129   2.452       .  S
Zr2127     O2130   2.461       .  S
Zr2127     O2133   2.471       .  S
Zr2127     O2135   2.391       .  S
Zr2127     O2136   2.385       .  S
Zr2127     O2137   2.418       .  S
Zr2127     O2490   2.404       .  S
O2128      H2184   0.990       .  S
O2128      H2192   0.990       .  S
O2129      C2149   1.287       .  A
O2130      C2151   1.289       .  A
O2131     Zr2141   2.400       .  S
O2131      C2502   1.279       .  A
O2132     Zr2140   2.442       .  S
O2132      C2151   1.286       .  A
O2133      C2150   1.291       .  A
O2134     Zr2142   2.413       .  S
O2134      C2149   1.279       .  A
O2135     Zr2140   2.404       .  S
O2135     Zr2142   2.381       .  S
O2136     Zr2493   2.384   1_554  S
O2136     Zr2142   2.382       .  S
O2136      H2171   0.966       .  S
O2137     Zr2140   2.410       .  S
O2137     Zr2509   2.394   1_554  S
O2137      H2174   0.965       .  S
O2138     Zr2479   2.406       .  S
O2138     Zr2141   2.392       .  S
O2138     Zr2157   2.396       .  S
Zr2139     O2164   2.442       .  S
Zr2139     O2158   2.416       .  S
Zr2139     O2166   2.429       .  S
Zr2139     O2154   2.407       .  S
Zr2139     O2145   2.398       .  S
Zr2139     O2498   2.405       .  S
Zr2139     O2147   2.382       .  S
Zr2139     O2148   2.377       .  S
Zr2140     O2159   2.436       .  S
Zr2140     O2152   2.435       .  S
Zr2140     O2153   2.464       .  S
Zr2140     O2146   2.395       .  S
Zr2140     O2499   2.389   1_554  S
Zr2141     O2143   2.437       .  S
Zr2141     O2165   2.436       .  S
Zr2141     O2167   2.420       .  S
Zr2141     O2488   2.383       .  S
Zr2141     O2145   2.388       .  S
Zr2141     O2148   2.373       .  S
Zr2142     O2168   2.436       .  S
Zr2142     O2169   2.437       .  S
Zr2142     O2144   2.437       .  S
Zr2142     O2497   2.404   1_554  S
Zr2142     O2146   2.390       .  S
O2143      H2180   0.990       .  S
O2144      H2175   0.990       .  S
O2144      H2189   0.990       .  S
O2145     Zr2494   2.401       .  S
O2146     Zr2491   2.401   1_554  S
O2146      H2172   0.965       .  S
O2147     Zr2492   2.392       .  S
O2147     Zr2157   2.371       .  S
O2148     Zr2157   2.364       .  S
O2148      H2173   0.966       .  S
C2149      C2309   1.476       .  S
C2150      C2453   1.496       .  S
C2150      O2483   1.277   1_554  A
C2151      C2338   1.497       .  S
O2152      H2188   0.990       .  S
O2153      C2507   1.290       .  A
O2154      C2155   1.281       .  A
C2155      C2405   1.478       .  S
C2155      O2505   1.289       .  A
O2156     Zr2157   2.439       .  S
O2156      H2185   0.990       .  S
Zr2157     O2160   2.437       .  S
Zr2157     O2161   2.439       .  S
Zr2157     O2162   2.437       .  S
Zr2157     O2489   2.396       .  S
O2158      C2163   1.280       .  A
O2159      H2176   0.990       .  S
O2159      H2191   0.990       .  S
O2160      H2177   0.990       .  S
O2161      H2181   0.990       .  S
O2161      H2190   0.990       .  S
O2162      C2163   1.285       .  A
C2163      C2357   1.477       .  S
O2164      H2183   0.990       .  S
O2164      H2187   0.990       .  S
O2165      H2179   0.990       .  S
O2165      H2186   0.990       .  S
O2166      C2170   1.282       .  A
O2167      C2170   1.281       .  A
O2168      H2178   0.990       .  S
O2169      H2182   0.990       .  S
C2170      C2325   1.464       .  S
N2193      C2197   1.359       .  A
N2193      C2194   1.367       .  A
N2193      C2306   1.450       .  S
C2194      C2290   1.493       .  S
C2194      C2195   1.383       .  A
C2195      C2196   1.364       .  A
C2195      H2198   1.083       .  S
C2196      C2197   1.378       .  A
C2196      H2199   1.083       .  S
C2197      C2322   1.471       .  S
N2200      C2204   1.365       .  A
N2200      C2201   1.369       .  A
N2200      C2341   1.455       .  S
C2201      C2274   1.476       .  S
C2201      C2202   1.380       .  A
C2202      C2203   1.359       .  A
C2202      H2205   1.083       .  S
C2203      C2204   1.378       .  A
C2203      H2206   1.083       .  S
C2204      C2354   1.477       .  S
Zr2207     O2208   2.438       .  S
Zr2207     O2209   2.433       .  S
Zr2207     O2210   2.432       .  S
Zr2207     O2213   2.434       .  S
Zr2207     O2215   2.383       .  S
Zr2207     O2216   2.376       .  S
Zr2207     O2217   2.410       .  S
O2208      H2264   0.990       .  S
O2208      H2272   0.990       .  S
O2209      C2229   1.284       .  A
O2210      C2231   1.283       .  A
O2211     Zr2221   2.414       .  S
O2211      C2230   1.282       .  A
O2212     Zr2220   2.441       .  S
O2212      C2231   1.287       .  A
O2214     Zr2222   2.427       .  S
O2215     Zr2220   2.390       .  S
O2216      H2251   0.967       .  S
O2217     Zr2220   2.394       .  S
O2217      H2254   0.967       .  S
O2218     Zr2221   2.388       .  S
O2218     Zr2237   2.403       .  S
Zr2219     O2238   2.451       .  S
Zr2219     O2228   2.381       .  S
Zr2220     O2239   2.436       .  S
Zr2220     O2232   2.434       .  S
Zr2220     O2233   2.432       .  S
Zr2220     O2226   2.398       .  S
Zr2220     O2227   2.394       .  S
Zr2221     O2223   2.435       .  S
Zr2221     O2228   2.394       .  S
Zr2222     O2248   2.435       .  S
Zr2222     O2249   2.436       .  S
Zr2222     O2224   2.437       .  S
O2223      H2260   0.990       .  S
O2224      H2255   0.990       .  S
O2224      H2269   0.990       .  S
O2228     Zr2237   2.383       .  S
O2228      H2253   0.966       .  S
C2229      C2370   1.474       .  S
C2230      C2421   1.477       .  S
C2231      C2293   1.474       .  S
O2232      H2268   0.989       .  S
O2233      C2235   1.284       .  A
C2235      C2389   1.490       .  S
O2236     Zr2237   2.439       .  S
O2236      H2265   0.990       .  S
Zr2237     O2241   2.439       .  S
Zr2237     O2242   2.427       .  S
O2238      C2243   1.288       .  A
O2239      H2256   0.990       .  S
O2239      H2271   0.990       .  S
O2241      H2261   0.990       .  S
O2241      H2270   0.990       .  S
O2242      C2243   1.282       .  A
C2243      C2434   1.494       .  S
O2244      H2267   0.990       .  S
O2245      H2259   0.990       .  S
O2245      H2266   0.990       .  S
O2246      C2250   1.290       .  A
O2247      C2250   1.278       .  A
O2248      H2258   0.990       .  S
O2249      H2262   0.990       .  S
C2250      C2277   1.487       .  S
C2273      C2274   1.401       .  A
C2273      C2278   1.410       .  A
C2273      H2280   1.084       .  S
C2274      C2275   1.418       .  A
C2275      C2276   1.400       .  A
C2275      C2282   1.508       .  S
C2276      C2277   1.400       .  A
C2276      H2281   1.085       .  S
C2277      C2278   1.421       .  A
C2278      C2279   1.508       .  S
C2279      H2283   1.111       .  S
C2279      H2284   1.110       .  S
C2282      H2286   1.107       .  S
C2282      H2287   1.110       .  S
C2282      H2288   1.110       .  S
C2289      C2290   1.410       .  A
C2289      C2294   1.408       .  A
C2289      H2296   1.084       .  S
C2290      C2291   1.418       .  A
C2291      C2292   1.404       .  A
C2291      C2298   1.500       .  S
C2292      C2293   1.397       .  A
C2292      H2297   1.085       .  S
C2293      C2294   1.409       .  A
C2294      C2295   1.506       .  S
C2295      H2299   1.111       .  S
C2295      H2300   1.110       .  S
C2295      H2301   1.110       .  S
C2298      H2302   1.108       .  S
C2298      H2303   1.108       .  S
C2298      H2304   1.111       .  S
C2305      C2306   1.408       .  A
C2305      C2310   1.404       .  A
C2305      H2312   1.083       .  S
C2306      C2307   1.421       .  A
C2307      C2308   1.406       .  A
C2307      C2314   1.503       .  S
C2308      C2309   1.401       .  A
C2308      H2313   1.085       .  S
C2309      C2310   1.410       .  A
C2310      C2311   1.508       .  S
C2311      H2315   1.111       .  S
C2311      H2316   1.110       .  S
C2311      H2317   1.111       .  S
C2314      H2318   1.110       .  S
C2314      H2319   1.100       .  S
C2314      H2320   1.111       .  S
C2321      C2322   1.404       .  A
C2321      C2326   1.398       .  A
C2321      H2328   1.084       .  S
C2322      C2323   1.407       .  A
C2323      C2324   1.405       .  A
C2323      C2330   1.505       .  S
C2324      C2325   1.405       .  A
C2324      H2329   1.084       .  S
C2325      C2326   1.407       .  A
C2326      C2327   1.507       .  S
C2327      H2331   1.111       .  S
C2327      H2332   1.110       .  S
C2327      H2333   1.111       .  S
C2330      H2334   1.110       .  S
C2330      H2335   1.110       .  S
C2330      H2336   1.111       .  S
C2337      C2338   1.407       .  A
C2337      C2342   1.413       .  A
C2337      H2344   1.084       .  S
C2338      C2339   1.416       .  A
C2339      C2340   1.409       .  A
C2339      C2346   1.508       .  S
C2340      C2341   1.407       .  A
C2340      H2345   1.084       .  S
C2341      C2342   1.418       .  A
C2342      C2343   1.503       .  S
C2343      H2347   1.111       .  S
C2343      H2348   1.105       .  S
C2343      H2349   1.105       .  S
C2346      H2350   1.111       .  S
C2346      H2351   1.109       .  S
C2346      H2352   1.111       .  S
C2353      C2354   1.405       .  A
C2353      C2358   1.405       .  A
C2353      H2360   1.084       .  S
C2354      C2355   1.412       .  A
C2355      C2356   1.401       .  A
C2355      C2362   1.503       .  S
C2356      C2357   1.402       .  A
C2356      H2361   1.085       .  S
C2357      C2358   1.414       .  A
C2358      C2359   1.509       .  S
C2359      H2363   1.111       .  S
C2359      H2364   1.111       .  S
C2359      H2365   1.110       .  S
C2362      H2366   1.109       .  S
C2362      H2367   1.108       .  S
C2362      H2368   1.111       .  S
C2369      C2370   1.399       .  A
C2369      C2374   1.404       .  A
C2369      H2376   1.084       .  S
C2371      C2372   1.405   1_554  A
C2371      C2378   1.507       .  S
C2372      C2373   1.401       .  A
C2372      H2377   1.082       .  S
C2373      N2472   1.438       .  S
C2374      C2727   1.505       .  S
C2375      C2726   1.505       .  S
C2375      H2379   1.110       .  S
C2375      H2380   1.111       .  S
C2375      H2381   1.108       .  S
C2378      H2382   1.111       .  S
C2378      H2383   1.109       .  S
C2378      H2384   1.111       .  S
C2385      C2390   1.408       .  A
C2385      H2392   1.084       .  S
C2386      C2387   1.413       .  A
C2387      C2388   1.405       .  A
C2387      C2394   1.509       .  S
C2388      H2393   1.084       .  S
C2389      C2390   1.421       .  A
C2390      C2391   1.507       .  S
C2391      H2395   1.111       .  S
C2391      H2396   1.110       .  S
C2391      H2397   1.108       .  S
C2394      H2398   1.108       .  S
C2394      H2399   1.109       .  S
C2394      H2400   1.111       .  S
C2401      C2402   1.406       .  A
C2401      C2406   1.410       .  A
C2401      H2408   1.084       .  S
C2402      C2403   1.413       .  A
C2403      C2404   1.401       .  A
C2403      C2410   1.508       .  S
C2404      C2405   1.403       .  A
C2404      H2409   1.085       .  S
C2405      C2406   1.412       .  A
C2406      C2407   1.505       .  S
C2407      H2411   1.111       .  S
C2407      H2412   1.111       .  S
C2407      H2765   1.110       .  S
C2410      H2414   1.110       .  S
C2410      H2415   1.105       .  S
C2410      H2416   1.111       .  S
H2413      C2759   1.110       .  S
C2417      C2418   1.400       .  A
C2417      C2422   1.401       .  A
C2417      H2424   1.083       .  S
C2418      C2419   1.408       .  A
C2419      C2420   1.400       .  A
C2419      C2426   1.507       .  S
C2420      C2421   1.406       .  A
C2420      H2425   1.084       .  S
C2421      C2422   1.415       .  A
C2422      C2423   1.506       .  S
C2423      H2427   1.111       .  S
C2423      H2429   1.110       .  S
C2426      H2430   1.110   1_554  S
C2426      H2431   1.109       .  S
C2426      H2432   1.111       .  S
C2433      C2434   1.412       .  A
C2433      C2438   1.411       .  A
C2433      H2440   1.084       .  S
C2434      C2435   1.416       .  A
C2435      C2436   1.404       .  A
C2435      C2442   1.508       .  S
C2436      C2437   1.405       .  A
C2436      H2441   1.084       .  S
C2437      C2438   1.409       .  A
C2438      C2439   1.504       .  S
C2439      H2443   1.111       .  S
C2439      H2444   1.107       .  S
C2439      H2445   1.108       .  S
C2442      H2446   1.109       .  S
C2442      H2447   1.111       .  S
C2442      H2448   1.111       .  S
C2449      C2450   1.404       .  A
C2449      C2806   1.408       .  A
C2449      H2456   1.085       .  S
C2450      C2803   1.402       .  A
C2451      C2802   1.402       .  A
C2451      C2452   1.401       .  A
C2451      C2458   1.507       .  S
C2452      C2453   1.415   1_556  A
C2452      H2457   1.083       .  S
C2453      C2454   1.417       .  A
C2454      C2801   1.407       .  A
C2454      C2455   1.504       .  S
C2455      H2811   1.111       .  S
C2455      H2460   1.109       .  S
C2455      H2813   1.110       .  S
C2458      H2462   1.110       .  S
C2458      H2815   1.111       .  S
C2458      H2464   1.111       .  S
H2459      C2807   1.111       .  S
H2461      C2807   1.110       .  S
H2463      C2810   1.111       .  S
N2465      C2466   1.359   1_556  A
N2465      C2789   1.448       .  S
C2466      C2802   1.471   1_554  S
C2467      C2468   1.365       .  A
C2467      H2470   1.082       .  S
C2468      C2469   1.380       .  A
C2468      H2471   1.082       .  S
C2469      C2770   1.473       .  S
N2472      C2476   1.355       .  A
N2472      C2473   1.357       .  A
C2473      C2754   1.480       .  S
C2473      C2474   1.381       .  A
C2474      C2475   1.375       .  A
C2474      H2477   1.082       .  S
C2475      C2476   1.382       .  A
C2475      H2478   1.082       .  S
C2476      C2738   1.479       .  S
Zr2479     O2480   2.439       .  S
Zr2479     O2481   2.455       .  S
Zr2479     O2482   2.467       .  S
Zr2479     O2485   2.471       .  S
Zr2479     O2487   2.393       .  S
Zr2479     O2488   2.388       .  S
Zr2479     O2489   2.418       .  S
O2480      H2536   0.990       .  S
O2480      H2544   0.990       .  S
O2481      C2501   1.288       .  A
O2482      C2503   1.290       .  A
O2483     Zr2493   2.391       .  S
O2484     Zr2492   2.442       .  S
O2484      C2503   1.286       .  A
O2485      C2502   1.291       .  A
O2486     Zr2494   2.411       .  S
O2486      C2501   1.279       .  A
O2487     Zr2492   2.402       .  S
O2487     Zr2494   2.385       .  S
O2488     Zr2494   2.382       .  S
O2488      H2523   0.966       .  S
O2489     Zr2492   2.407       .  S
O2489      H2526   0.965       .  S
O2490     Zr2493   2.398   1_554  S
O2490     Zr2509   2.397   1_554  S
Zr2491     O2516   2.442       .  S
Zr2491     O2510   2.415       .  S
Zr2491     O2518   2.432       .  S
Zr2491     O2506   2.404       .  S
Zr2491     O2497   2.394       .  S
Zr2491     O2499   2.382       .  S
Zr2491     O2500   2.374       .  S
Zr2492     O2511   2.436       .  S
Zr2492     O2504   2.435       .  S
Zr2492     O2505   2.458       .  S
Zr2492     O2498   2.397       .  S
Zr2493     O2495   2.437       .  S
Zr2493     O2517   2.433       .  S
Zr2493     O2519   2.421       .  S
Zr2493     O2497   2.382       .  S
Zr2493     O2500   2.373       .  S
Zr2494     O2520   2.436       .  S
Zr2494     O2521   2.437       .  S
Zr2494     O2496   2.437       .  S
Zr2494     O2498   2.394       .  S
O2495      H2532   0.991       .  S
O2496      H2527   0.991       .  S
O2496      H2541   0.990       .  S
O2498      H2524   0.965       .  S
O2499     Zr2509   2.371       .  S
O2500     Zr2509   2.366       .  S
O2500      H2525   0.966       .  S
C2501      C2661   1.475       .  S
C2502      C2805   1.502       .  S
C2503      C2690   1.498       .  S
O2504      H2540   0.990       .  S
O2506      C2507   1.280   1_556  A
C2507      C2757   1.479       .  S
O2508     Zr2509   2.440   1_554  S
O2508      H2537   0.991   1_554  S
Zr2509     O2512   2.438       .  S
Zr2509     O2513   2.439       .  S
Zr2509     O2514   2.433       .  S
O2510      C2515   1.280       .  A
O2511      H2528   0.990       .  S
O2511      H2543   0.990       .  S
O2512      H2529   0.990       .  S
O2513      H2533   0.990       .  S
O2513      H2542   0.990       .  S
O2514      C2515   1.286       .  A
C2515      C2709   1.474       .  S
O2516      H2535   0.990       .  S
O2516      H2539   0.990       .  S
O2517      H2531   0.990       .  S
O2517      H2538   0.990       .  S
O2518      C2522   1.283       .  A
O2519      C2522   1.281       .  A
O2520      H2530   0.990       .  S
O2521      H2534   0.990       .  S
C2522      C2677   1.466       .  S
N2545      C2549   1.358       .  A
N2545      C2546   1.366       .  A
N2545      C2658   1.448       .  S
C2546      C2642   1.493       .  S
C2546      C2547   1.383       .  A
C2547      C2548   1.364       .  A
C2547      H2550   1.082       .  S
C2548      C2549   1.378       .  A
C2548      H2551   1.082       .  S
C2549      C2674   1.471       .  S
N2552      C2556   1.366       .  A
N2552      C2553   1.369       .  A
N2552      C2693   1.457       .  S
C2553      C2626   1.475       .  S
C2553      C2554   1.380       .  A
C2554      C2555   1.357       .  A
C2554      H2557   1.083       .  S
C2555      C2556   1.379       .  A
C2555      H2558   1.083       .  S
C2556      C2706   1.478       .  S
Zr2559     O2560   2.439       .  S
Zr2559     O2561   2.427       .  S
Zr2559     O2562   2.431       .  S
Zr2559     O2565   2.430       .  S
Zr2559     O2567   2.383       .  S
Zr2559     O2568   2.380       .  S
Zr2559     O2569   2.406       .  S
O2560      H2616   0.990       .  S
O2560      H2624   0.990       .  S
O2561      C2581   1.282       .  A
O2562      C2583   1.282       .  A
O2563     Zr2573   2.416       .  S
O2563      C2582   1.283       .  A
O2564     Zr2572   2.428       .  S
O2564      C2583   1.284       .  A
O2566     Zr2574   2.430       .  S
O2567     Zr2572   2.391       .  S
O2568      H2603   0.967       .  S
O2569     Zr2572   2.392       .  S
O2569      H2606   0.967       .  S
O2570     Zr2573   2.389       .  S
O2570     Zr2589   2.403       .  S
Zr2571     O2590   2.446       .  S
Zr2571     O2580   2.381       .  S
Zr2572     O2591   2.435       .  S
Zr2572     O2584   2.434       .  S
Zr2572     O2585   2.427       .  S
Zr2572     O2578   2.398       .  S
Zr2572     O2579   2.392       .  S
Zr2573     O2575   2.436       .  S
Zr2573     O2580   2.393       .  S
Zr2574     O2600   2.436       .  S
Zr2574     O2601   2.435       .  S
Zr2574     O2576   2.438       .  S
O2575      H2612   0.990       .  S
O2576      H2607   0.990       .  S
O2576      H2621   0.990       .  S
O2580     Zr2589   2.384       .  S
O2580      H2605   0.966       .  S
C2581      C2722   1.471       .  S
C2582      C2773   1.477       .  S
C2583      C2645   1.469       .  S
O2584      H2620   0.990       .  S
O2585      C2587   1.283       .  A
C2587      C2741   1.493       .  S
O2588     Zr2589   2.440       .  S
O2588      H2617   0.991       .  S
Zr2589     O2593   2.442       .  S
Zr2589     O2594   2.430       .  S
O2590      C2595   1.286       .  A
O2591      H2608   0.990       .  S
O2591      H2623   0.990       .  S
O2593      H2613   0.990       .  S
O2593      H2622   0.990       .  S
O2594      C2595   1.283       .  A
C2595      C2786   1.497       .  S
O2596      H2619   0.990       .  S
O2597      H2611   0.990       .  S
O2597      H2618   0.990       .  S
O2598      C2602   1.292       .  A
O2599      C2602   1.277       .  A
O2600      H2610   0.990       .  S
O2601      H2614   0.990       .  S
C2602      C2629   1.490       .  S
C2625      C2626   1.400       .  A
C2625      C2630   1.410       .  A
C2625      H2632   1.084       .  S
C2626      C2627   1.417       .  A
C2627      C2628   1.400       .  A
C2627      C2634   1.507       .  S
C2628      C2629   1.401       .  A
C2628      H2633   1.085       .  S
C2629      C2630   1.424       .  A
C2630      C2631   1.508       .  S
C2631      H2635   1.111       .  S
C2631      H2636   1.110       .  S
C2634      H2638   1.106       .  S
C2634      H2639   1.110       .  S
C2634      H2640   1.110       .  S
C2641      C2642   1.410       .  A
C2641      C2646   1.406       .  A
C2641      H2648   1.084       .  S
C2642      C2643   1.419       .  A
C2643      C2644   1.403       .  A
C2643      C2650   1.500       .  S
C2644      C2645   1.397       .  A
C2644      H2649   1.085       .  S
C2645      C2646   1.407       .  A
C2646      C2647   1.506       .  S
C2647      H2651   1.111       .  S
C2647      H2652   1.110       .  S
C2647      H2653   1.111       .  S
C2650      H2654   1.106       .  S
C2650      H2655   1.108       .  S
C2650      H2656   1.111       .  S
C2657      C2658   1.408       .  A
C2657      C2662   1.404       .  A
C2657      H2664   1.083       .  S
C2658      C2659   1.420       .  A
C2659      C2660   1.406       .  A
C2659      C2666   1.503       .  S
C2660      C2661   1.401       .  A
C2660      H2665   1.085       .  S
C2661      C2662   1.409       .  A
C2662      C2663   1.508       .  S
C2663      H2667   1.111       .  S
C2663      H2668   1.110       .  S
C2663      H2669   1.110       .  S
C2666      H2670   1.110       .  S
C2666      H2671   1.101       .  S
C2666      H2672   1.111       .  S
C2673      C2674   1.403       .  A
C2673      C2678   1.398       .  A
C2673      H2680   1.084       .  S
C2674      C2675   1.407       .  A
C2675      C2676   1.405       .  A
C2675      C2682   1.505       .  S
C2676      C2677   1.405       .  A
C2676      H2681   1.084       .  S
C2677      C2678   1.408       .  A
C2678      C2679   1.507       .  S
C2679      H2683   1.111       .  S
C2679      H2684   1.110       .  S
C2679      H2685   1.111       .  S
C2682      H2686   1.111       .  S
C2682      H2687   1.110       .  S
C2682      H2688   1.111       .  S
C2689      C2690   1.407       .  A
C2689      C2694   1.415       .  A
C2689      H2696   1.084       .  S
C2690      C2691   1.416       .  A
C2691      C2692   1.408       .  A
C2691      C2698   1.507       .  S
C2692      C2693   1.407       .  A
C2692      H2697   1.084       .  S
C2693      C2694   1.419       .  A
C2694      C2695   1.503       .  S
C2695      H2699   1.111       .  S
C2695      H2700   1.105       .  S
C2695      H2701   1.104       .  S
C2698      H2702   1.111       .  S
C2698      H2703   1.109       .  S
C2698      H2704   1.111       .  S
C2705      C2706   1.406       .  A
C2705      C2710   1.404       .  A
C2705      H2712   1.084       .  S
C2706      C2707   1.411       .  A
C2707      C2708   1.400       .  A
C2707      C2714   1.502       .  S
C2708      C2709   1.401       .  A
C2708      H2713   1.085       .  S
C2709      C2710   1.414       .  A
C2710      C2711   1.510       .  S
C2711      H2715   1.111       .  S
C2711      H2716   1.111       .  S
C2711      H2717   1.110       .  S
C2714      H2718   1.108       .  S
C2714      H2719   1.108       .  S
C2714      H2720   1.111       .  S
C2721      C2722   1.400       .  A
C2721      C2726   1.402       .  A
C2721      H2728   1.085       .  S
C2723      C2724   1.402       .  A
C2723      C2730   1.507       .  S
C2724      C2725   1.399       .  A
C2724      H2729   1.080       .  S
C2727      H2731   1.110       .  S
C2727      H2732   1.110       .  S
C2727      H2733   1.107   1_554  S
C2730      H2734   1.111       .  S
C2730      H2735   1.109       .  S
C2730      H2736   1.111       .  S
C2737      C2742   1.409       .  A
C2737      H2744   1.084       .  S
C2738      C2739   1.412       .  A
C2739      C2740   1.404       .  A
C2739      C2746   1.509       .  S
C2740      H2745   1.084       .  S
C2741      C2742   1.422       .  A
C2742      C2743   1.508       .  S
C2743      H2747   1.111       .  S
C2743      H2748   1.110       .  S
C2743      H2749   1.109       .  S
C2746      H2750   1.109       .  S
C2746      H2751   1.109       .  S
C2746      H2752   1.111       .  S
C2753      C2754   1.404       .  A
C2753      C2758   1.409   1_556  A
C2753      H2760   1.084       .  S
C2754      C2755   1.411       .  A
C2755      C2756   1.401       .  A
C2755      C2762   1.508       .  S
C2756      C2757   1.404   1_556  A
C2756      H2761   1.085       .  S
C2757      C2758   1.412       .  A
C2758      C2759   1.505       .  S
C2759      H2763   1.111       .  S
C2759      H2764   1.110       .  S
C2762      H2766   1.110       .  S
C2762      H2767   1.106       .  S
C2762      H2768   1.111       .  S
C2769      C2770   1.401       .  A
C2769      C2774   1.402       .  A
C2769      H2776   1.082       .  S
C2770      C2771   1.408       .  A
C2771      C2772   1.400       .  A
C2771      C2778   1.506       .  S
C2772      C2773   1.406       .  A
C2772      H2777   1.085       .  S
C2773      C2774   1.415       .  A
C2774      C2775   1.507       .  S
C2775      H2779   1.111       .  S
C2775      H2781   1.110       .  S
C2778      H2782   1.110       .  S
C2778      H2783   1.109       .  S
C2778      H2784   1.111       .  S
C2785      C2786   1.413       .  A
C2785      C2790   1.413       .  A
C2785      H2792   1.084       .  S
C2786      C2787   1.418       .  A
C2787      C2788   1.403       .  A
C2787      C2794   1.509       .  S
C2788      C2789   1.404       .  A
C2788      H2793   1.083       .  S
C2789      C2790   1.411       .  A
C2790      C2791   1.503       .  S
C2791      H2795   1.111       .  S
C2791      H2796   1.108       .  S
C2791      H2797   1.106       .  S
C2794      H2798   1.110       .  S
C2794      H2799   1.110       .  S
C2794      H2800   1.111       .  S
C2801      C2802   1.405   1_554  A
C2801      H2808   1.085       .  S
C2803      C2804   1.403       .  A
C2803      C2810   1.507       .  S
C2804      C2805   1.417       .  A
C2804      H2809   1.083       .  S
C2805      C2806   1.420       .  A
C2806      C2807   1.506       .  S
C2807      H2812   1.109       .  S
C2810      H2814   1.110       .  S
C2810      H2816   1.110       .  S
